124
 SCF done       -222.073474327049          0.000805803665
C          -6.64150899370242   -8.11782633284706    3.13147532191615
O          -7.11428156991228   -6.82555926678584    3.44677806800062
C          -6.52340078036743   -6.16809479007367    4.42381212419581
S          -5.17721562443953   -6.82244025188759    5.33658712876984
C          -5.06188496769284   -5.37762115104340    6.33759225973357
C          -6.02634993408377   -4.47455731746287    5.94665387737444
C          -6.84989130094723   -4.91034620496325    4.87407687542273
C          -7.87402478615077   -3.97695004220821    4.44973880004517
O          -8.69881019217927   -4.06523910513039    3.59183577894483
S          -7.71429857399032   -2.50154966407145    5.51208372824080
C          -6.32748276326786   -3.15549185666215    6.46662021885159
O          -5.79601681076627   -2.55179054924552    7.35756847493948
C          -4.11896754897689   -5.21993108503314    7.37889271203346
C          -3.21007615534351   -6.16666325268645    7.72037554181010
C          -2.25090851726729   -6.12198259868925    8.76145583189338
S          -1.35038452798863   -7.58710739630494    9.05165721722822
C          -0.50774681477768   -6.86640196620299   10.39180112257812
C          -0.90949051857803   -5.54484765663113   10.57592519052513
C          -1.87703085735930   -5.11996111681916    9.65485034878183
C          -2.44167487319692   -3.73733569513318    9.66936687079320
C          -1.68923510981989   -2.79428917720619   10.61162347037370
C          -1.20822500236004   -3.42528122292375   11.92752779058721
H          -0.57374373895485   -2.68211479447521   12.42771640045316
O          -2.20529992895077   -3.64205822885404   12.90483235928641
C          -3.14094746712889   -4.67444947959316   12.71061935822743
C          -0.34025754688156   -4.66052121275124   11.63753015269381
C           0.42378905950035   -7.58455027883997   11.17310341667636
C           0.80613197921293   -8.86384152449050   10.92705296400994
C           1.68346598576132   -9.63289588102808   11.72744391915040
S           2.05479484110606  -11.25058245332501   11.15611126754548
C           3.04255018695507  -11.62498710023412   12.55053648329032
C           3.06789247447234  -10.52731145763430   13.39356757571223
C           2.32275993342759   -9.40881076200198   12.94222285881921
C           2.36824138123712   -8.26821353505293   13.84008432497574
O           1.86562968700844   -7.18032160337877   13.74575681557173
S           3.38325396001018   -8.70822173748736   15.26767540544972
C           3.74455302372948  -10.37786118963888   14.66443622688064
O           4.42586897313249  -11.15675860220196   15.26796976489003
C           3.67318695489199  -12.87208807194770   12.74706949441835
C           3.68659126234384  -13.87036262951052   11.82784058631335
C           4.28438499916357  -15.13576926324829   12.02225373152560
S           4.91923197918280  -15.61206282546383   13.57132563549905
C           5.39621580867702  -17.16546169980656   12.94610552784780
C           5.08738186533894  -17.27857428569311   11.59223896970840
C           4.44473185304764  -16.14837878367360   11.07962704597935
C           4.02171452122016  -16.05159381690833    9.64980791704514
C           3.94018950038366  -17.44064264638926    9.02074377183228
C           5.24599163726026  -18.20711602668181    9.27437767060875
H           5.21640908165616  -19.16720373060952    8.73172132463516
O           6.39072356944123  -17.48136517931538    8.86817591181602
C           6.61413174700950  -17.45664710923248    7.48313224045792
C           5.39598132208691  -18.48909050402569   10.77211999462454
C           5.97989384898733  -18.16538400298116   13.75508420274632
C           6.19555547042492  -18.04180704331974   15.08954248259421
C           6.72976023072037  -19.03240020977990   15.94920814385875
S           6.84658359251678  -18.61167213234073   17.64213069474487
C           7.49784169464407  -20.16677479785229   18.10275902297793
C           7.61988109842248  -20.96545541765096   16.97102481465418
C           7.18804186793967  -20.33317051359881   15.76856902151301
C           7.28843610697515  -21.15685254987817   14.58011412465402
O           7.00729294770267  -20.92195902867130   13.43487837529706
S           7.95293747550614  -22.76215424987186   15.06219750477676
C           8.08802753532961  -22.32749467706778   16.80655957069333
O           8.50964562940679  -23.11570957045761   17.61042345424073
C           7.75757637451370  -20.35837556947489   19.48265319753727
C           8.29718257177375  -21.46336929146518   20.05433653820013
C           8.49653049501292  -21.62617602317580   21.44492432567669
S           8.01269846790717  -20.42287508706401   22.60423397337006
C           8.54662054070548  -21.41445995327599   23.93159328375454
C           9.09497126313071  -22.60671074051937   23.47673817623499
C           9.06103031971740  -22.72736673139764   22.07837623580253
C           9.62091375883396  -23.90700689416686   21.35536356102691
C           9.81993933002112  -25.08803026435714   22.30046770508374
C          10.57910749845280  -24.63035539825863   23.54676553267879
H          10.80574224787204  -25.50122121805441   24.18552114740618
O          11.79120994017337  -24.04332867127365   23.11667863585123
C          12.79167958648735  -23.95276236942494   24.09551307873813
C           9.70045599468035  -23.65796429333293   24.35241511256197
C           8.35808122324590  -20.88702492882928   25.24269590304036
C           8.44211142698442  -21.54776831757414   26.41560681780859
C           8.23157629729167  -20.89115752292623   27.63609759380206
N           8.06602331048572  -20.36825204246929   28.64511684798531
H          -7.26616587487423   -8.47522831430152    2.31598149412672
H          -6.73208547506826   -8.78732224309879    3.99239631217437
H          -5.59510694223054   -8.08367920088720    2.81310703614919
H          -4.19756458341329   -4.27819452650571    7.89695671318163
H          -3.21964552202555   -7.09335030632579    7.15533034852487
H          -3.49657356803918   -3.78713880064751    9.95304226463028
H          -2.40444363825990   -3.31971330957015    8.65918056659325
H          -2.32439444250500   -1.93825020740192   10.84199929057432
H          -0.79787518735084   -2.42196678158961   10.10162236422054
H          -3.63662383330056   -4.79972208002387   13.67303073220986
H          -2.66729369341642   -5.62048199453412   12.43191008028462
H          -3.89600643537427   -4.41628734973628   11.96122550281542
H          -0.19156921652244   -5.21492209858027   12.56656766466166
H           0.64440597791827   -4.31419487904320   11.31006449267835
H           0.83674822268730   -7.06368396204852   12.02344104412038
H           0.41288461931545   -9.37152939403679   10.05384875407244
H           4.17477128939968  -12.99665814780848   13.69801327495298
H           3.21757973455481  -13.69900440170862   10.86644496010665
H           4.76391883090596  -15.45569947174851    9.10966493128124
H           3.05794227134569  -15.54522196124510    9.56524480627407
H           3.75066612306219  -17.35045165607126    7.95012232498295
H           3.11867287739349  -18.00710641023734    9.46212732388792
H           7.57888585185700  -16.97361325047304    7.33895848803225
H           5.84562135840138  -16.88717551951350    6.94741963059649
H           6.65130973669064  -18.47212465360174    7.06914429234116
H           6.41946508917714  -18.81630120658437   10.96241907116252
H           4.72712418050103  -19.30604886253569   11.05551066924089
H           6.24037523939009  -19.08582208132180   13.25552718350476
H           5.92695692686766  -17.11187227865163   15.57742378043762
H           7.48334515470185  -19.52256170430904   20.11630327234956
H           8.59660723947327  -22.29325259658269   19.43319634891591
H          10.59314265299131  -23.62541995873713   20.94181253585922
H           8.97536944113635  -24.19419101011468   20.52408895845690
H          10.38755215426799  -25.86679849250280   21.79177221878534
H           8.85698355968064  -25.50101595795790   22.60537442368960
H          13.68488667971161  -23.59770894804282   23.58503753196229
H          12.99616685263853  -24.93186055529049   24.54703517912224
H          12.53437915153819  -23.24501710907157   24.89251291641363
H          10.30110916557036  -23.18417219997843   25.13260574756837
H           8.90876981512849  -24.23609588246782   24.83924534369169
H           8.09072326622688  -19.83698176634214   25.27338320488794
H           8.64890412278615  -22.60385484461555   26.48921997280562
