275
 SCF done       -381.982136093395          0.000474695352
C           8.46586697586576   -1.02591717630022   -7.50339968803130
N           7.08802807672955   -0.69261838043213   -7.21929458172340
C           6.09154583426314   -1.59796220075900   -7.73610673468597
C           6.75852778614984    0.64510521814706   -7.03319523759548
C           7.72988947259894    1.53788817245459   -6.55086120068561
C           5.45988190113316    1.13586960657827   -7.26745426085673
C           5.12385314776501    2.44652439975731   -7.03476492277242
C           6.08558554958784    3.34110586451412   -6.55071216895786
C           7.38610863836414    2.84533482162657   -6.30567324908584
N           8.26336844196068    3.93142753697365   -5.82777544728860
C           8.76091010182676    3.75837218048635   -4.43231207235693
C           9.19488660094214    2.36607895172421   -3.98835172825656
C           9.67950981465731    2.41891133750670   -2.53853397070902
C          10.10386619182250    1.04130215390645   -2.03456153035629
C          10.57998016102883    1.09497000222490   -0.58850827914553
C           9.32528138150500    4.26208773889409   -6.81762821811278
C          10.53062461697057    3.33639187214864   -6.91945718079884
C          11.48057163167517    3.84089455913345   -8.00731898744197
C          12.70578070713028    2.93987610221837   -8.14796306683808
C          13.64637525699043    3.43549407406265   -9.23883957822412
C           7.34028497616516    5.10228506689568   -5.80741513053395
C           7.66675494587135    6.35955217524526   -5.41381901430923
C           6.05562717543986    4.72149325319825   -6.24686822975622
C           5.06977249226598    5.72582740284778   -6.28800863885264
C           5.38380660274187    6.99678587900162   -5.91140946819946
C           6.68079336543904    7.38927215062219   -5.45380032559576
C           6.99550719576081    8.71993399051418   -5.07172369641006
C           6.15825617823464    9.81368408457947   -5.43901830362773
C           8.16437045148001    9.04638472992936   -4.31656987852360
C           8.50194851596994   10.31867487340513   -3.97528847175237
C           7.69459565396626   11.39685761529702   -4.39517072221628
C           6.52834722091954   11.08419857251787   -5.13856494066508
N           5.79991331571253   12.33449032546192   -5.48206133201305
C           5.71704664809522   12.52203300242665   -6.95458759626348
C           4.60032281108773   11.78569905113680   -7.69174217983122
C           4.84172857643250   11.80542508022806   -9.20949340465661
C           5.47500723470041   10.51774293762837   -9.74206911704116
C           6.87040281982020   10.23170415958835   -9.19870743081750
C           4.49717132079865   12.27535549923388   -4.76875573111631
C           3.57404230103558   13.49079368974815   -4.90337133869405
C           3.58943536177661   14.40366720616450   -3.67267569637168
C           2.87452172464404   13.81209512843919   -2.45654081455479
C           1.36037617952591   13.74420276380591   -2.62232197722958
C           6.68665746631520   13.38621762932824   -4.92575286364133
C           6.54891990596555   14.73509653204485   -5.05937735527370
C           7.77852902090489   12.78841127073602   -4.24912258143760
C           8.70756168784624   13.64616510393376   -3.62614890237319
C           8.54325259363367   14.99629224142800   -3.71154444408646
C           7.48071727377560   15.60125915306932   -4.43602327508970
C           7.36668729626899   17.02684077430566   -4.54278217113748
C           6.69245991071422   17.64075090317213   -5.62756277003707
C           7.94454921334687   17.89032078131314   -3.57297067714551
C           7.89524041758527   19.25235391862521   -3.65671980897784
C           7.25199725678655   19.85651317902525   -4.75185038782368
C           6.66330002451398   19.00057444980532   -5.70864693890866
N           6.01423637384446   19.80042629813878   -6.77312134143625
C           6.51351574991154   19.42678234529004   -8.11732843559989
C           8.04238879548868   19.44095476337313   -8.22480387371605
C           8.61602234875581   20.76327821181315   -8.73480844511478
C          10.14456807613520   20.76413471898627   -8.76401895751048
C          10.73527550402280   19.79305307302103   -9.78019204170011
C           4.55116014668697   19.56101390699862   -6.62595156849741
C           3.62479352190658   20.34647257573787   -7.54824813013991
C           2.17672887195732   19.86612758773686   -7.41670229085237
C           1.55004907000951   20.16628999724212   -6.05615913186323
C           0.06149235948589   19.83839919263774   -6.04878808314021
C           6.36854252547074   21.18404395468606   -6.40400216053807
C           6.10823863456541   22.31048608463069   -7.12335022024542
C           7.06963584927279   21.19108170812879   -5.17508926230866
C           7.47871853602422   22.43774653980138   -4.67103027537530
C           7.20511011042218   23.57414533511284   -5.37667034580303
C           6.52631450584760   23.57099136569444   -6.62590053847226
C           6.29390353006622   24.77429589734091   -7.36969435786439
C           6.33649008254292   26.04398092123468   -6.74027115414821
C           6.03118947262804   24.76227790882558   -8.76534055455164
C           5.82849283576928   25.89649543778797   -9.50111626671992
C           5.87278709442892   27.14989577879855   -8.86978639525000
C           6.13052509172458   27.16604401456727   -7.48186010232583
N           6.14387188051504   28.55413573899924   -6.97938054550462
C           5.00151075929619   28.68658989388329   -6.02532694646776
C           4.86587993110907   29.99244594611969   -5.24004815327748
C           5.63506574436796   30.04112010589204   -3.90647223128179
C           6.51205585476243   31.28622907678830   -3.77091938657072
C           7.07808546540687   31.42050004226505   -2.36247736488121
C           7.44801214666953   28.87743720889479   -6.35594257528106
C           8.65970439075746   28.56532087288884   -7.23867380369464
C           9.04463874575926   29.67452218946921   -8.21677984256075
C          10.31923456884238   29.32309955920641   -8.98071697114707
C          10.69681605320181   30.42393831457718   -9.96345140468928
C           5.90482856198398   29.34539452486915   -8.20181180327795
C           5.87106623088755   30.69975778928875   -8.29855495839527
C           5.74006269176760   28.48541079131952   -9.31437227949500
C           5.54350391504898   29.06714834014409  -10.57743128716881
C           5.50491003256806   30.42761794342226  -10.69289044811214
C           5.64517857154535   31.28488358424514   -9.57099539958345
C           5.58250367643094   32.68406751800527   -9.68474329177754
S           5.54792284430641   33.48009177991820  -11.25043026943234
C           5.47418222860175   35.09383372709092  -10.56393561973347
C           5.45309897885377   34.99125393329901   -9.16061700409538
C           5.50979886053873   33.65582895175566   -8.66830141154623
N           5.42998944805375   33.41086354975404   -7.34467796784762
C           5.31659543861330   34.43902621249723   -6.52964650936183
O           5.20287609508235   34.08360193600789   -5.21838981630241
C           4.59441131805038   34.99013991449700   -4.31109440703767
C           4.19708143722074   34.21724639729584   -3.06171343728792
C           5.33995802560083   35.77417451070064   -7.02592764031094
O           5.32472650432127   36.82467704350368   -6.16989504062164
C           5.35904742961236   38.11031701959173   -6.77835352007147
C           5.36197745475381   39.15400043422537   -5.67609840633444
N           5.39420873484776   36.03009045939514   -8.31219960691962
C           5.44805454938885   36.21066043380834  -11.39125429310229
C           5.39091895808299   37.50979304240273  -10.93700977985971
C           5.37555412766585   38.62824004295393  -11.76793863562207
S           5.29663468579827   40.23372067114192  -11.08696487530777
C           5.31287345488767   41.02997418653153  -12.64999549740381
C           5.37571928106721   40.06453763871698  -13.65727828960624
C           5.41482028438233   38.72721303756732  -13.17447152300882
N           5.48513801506769   37.68196669953905  -14.02313821751462
C           5.51274046800058   37.94617204620289  -15.30160599339088
O           5.60297944247859   36.95563623577694  -16.20765370864467
C           5.66213282056465   35.63348745438282  -15.69086505399629
C           4.30088842377069   35.12324943302264  -15.23425446684633
C           5.46617574287055   39.29738831144582  -15.79339149093109
O           5.47790002644933   39.46900752186686  -17.12311804336982
C           5.42815809274637   40.81054065603695  -17.59093266277478
C           6.77113435823173   41.51897676432775  -17.46465692053215
N           5.40228267250388   40.32287641847918  -14.98852309467079
C           5.27026211260083   42.43526028981297  -12.73508648465798
C           5.27925999916233   43.13237446249823  -13.89114219907830
C           5.23771470525062   44.60441359421205  -13.94033175206390
F           6.30440258752004   45.14457259664768  -14.58866170062495
F           4.16122115680979   45.08484983027387  -14.61904169681454
F           5.20355043531632   45.20679346139223  -12.73926597184823
H           8.52210057956833   -2.04411716162636   -7.88028784834315
H           9.07140758983362   -0.97616960543775   -6.59371853199906
H           8.90556977280944   -0.35926118929475   -8.25538552908153
H           6.46999390167618   -2.61643314451694   -7.66472428554771
H           5.82774024969735   -1.39669842296595   -8.78344755965869
H           5.18952966608919   -1.53734939211320   -7.12758988974019
H           8.72291782418729    1.17578782979367   -6.35880405654822
H           4.69939685040321    0.47818947657486   -7.65389820642017
H           4.12269131683266    2.79562468600872   -7.23344942174573
H           7.94020453550825    4.07037604158417   -3.78023409410835
H           9.58376909139135    4.46387539693166   -4.29360966009405
H          10.00125139540804    1.98079973973515   -4.61153842490550
H           8.35043642551285    1.67924417516139   -4.05540898216896
H           8.88054469382513    2.80382034252839   -1.90154967181740
H          10.52559357810814    3.10592764794168   -2.45905816762353
H          10.90718636373095    0.65550740901203   -2.66653754905935
H           9.25970054063230    0.35330072427295   -2.11417772828875
H          11.43403233679772    1.76153132301912   -0.49137994554122
H          10.87611107802661    0.10640720303837   -0.24736399139176
H           9.78687305171148    1.45871096840074    0.06055525008592
H           9.68118642378653    5.26824554806486   -6.57929003631774
H           8.82174429638683    4.30843906168634   -7.78746641308660
H          10.21839697515932    2.32514146431159   -7.17615650755961
H          11.07160207876741    3.30852234956776   -5.97262587060374
H          11.80589401301191    4.85574986949270   -7.76788636019044
H          10.95142635496770    3.88013956254648   -8.96184354033919
H          12.38185717322710    1.92353128454119   -8.38343924157284
H          13.24113597974482    2.90512388018425   -7.19643029125940
H          13.13943059255486    3.45336220957087  -10.20088458139687
H          13.99298415853679    4.44195370660356   -9.01606714558989
H          14.51284103585155    2.78426350786242   -9.31962636432096
H           8.66969934500072    6.60013941270076   -5.09742932661729
H           4.06958469797951    5.47608119675284   -6.60932153173243
H           4.59420174143961    7.73236124158858   -5.92719275435244
H           5.25203804195846    9.60286869097341   -5.98135942434660
H           8.79094244265069    8.24379611191479   -3.95808015772217
H           9.38125223952175   10.51839115981672   -3.38130977198003
H           6.68756601454650   12.20694743427385   -7.34238902022647
H           5.61603750483147   13.59183673095340   -7.15295840988128
H           3.64311902619772   12.25908190977256   -7.46646830696725
H           4.54102168395023   10.74759775417126   -7.37452926036521
H           5.47283815292548   12.65691117458950   -9.47319158427893
H           3.88544658135498   11.94105749233849   -9.71836074588151
H           5.52901975654224   10.59299914571336  -10.83059957857541
H           4.82097377427626    9.67534693046517   -9.50571536329157
H           7.53681122493018   11.07143393415121   -9.38690673969134
H           7.28391199538940    9.35597596312404   -9.69340059290337
H           6.85090005381291   10.02639464257769   -8.13111348036641
H           4.75045864106029   12.12497585478751   -3.71649219707778
H           3.98801796214376   11.37485296288565   -5.11599225289059
H           2.55502600879519   13.13575000245974   -5.06394530854828
H           3.84382431681145   14.07240833295812   -5.78374191464509
H           3.10513635325337   15.34819035239604   -3.93148831622431
H           4.62329488204156   14.62745171534369   -3.40475615246509
H           3.10314970261067   14.43825100036302   -1.59210723300443
H           3.25909091138161   12.81266196275686   -2.24395781806289
H           0.95750207115060   14.72843470064723   -2.85120799013060
H           0.89845279258496   13.39202332018822   -1.70345560754479
H           1.07710518565906   13.06205207295895   -3.42037833516306
H           5.71868122302156   15.16859685036877   -5.59587155524740
H           9.54886825301546   13.22227721292885   -3.09946601429678
H           9.28149901134646   15.63567523056867   -3.25316401921018
H           6.25929508470539   17.02989798741503   -6.40701633836490
H           8.42084095697138   17.44570600657827   -2.71315532663528
H           8.34092031324644   19.87045972401418   -2.89247710798594
H           6.09231381468553   20.11751159579273   -8.84911373700442
H           6.13742368934014   18.42277349655377   -8.32980152453421
H           8.33266590195899   18.64385426065829   -8.91069355189750
H           8.47774273643764   19.20801206855375   -7.25178127079968
H           8.28728347304796   21.57808362536771   -8.08962014703213
H           8.23871244377983   20.95797694794377   -9.74218478185487
H          10.52048048481049   20.52422337649047   -7.76732274344277
H          10.47845351150527   21.77460076808171   -9.00766464481490
H          10.53157595499587   18.76096701130756   -9.50606158157709
H          11.81405615784247   19.91780298879467   -9.83327818919091
H          10.32199834345266   19.97831155937941  -10.76962949302918
H           4.31603295575338   19.80317981292552   -5.58714107619432
H           4.38414770747316   18.48990643041499   -6.77335904889150
H           3.92975533286273   20.21852754902270   -8.58840570833715
H           3.66767579311328   21.40742357234083   -7.30210665013085
H           2.12748851433655   18.79146621235632   -7.61042848666402
H           1.58477898119016   20.36428330505357   -8.18726700562862
H           1.68831483703182   21.22380915769070   -5.82265147176458
H           2.04573541591724   19.58366837854448   -5.27747540744302
H          -0.46720872346553   20.44398391794660   -6.78118034590687
H          -0.36720825923136   20.03427443595924   -5.06936933146248
H          -0.10076234922223   18.79016238848166   -6.29086152402015
H           5.58861422049864   22.26267730514431   -8.06646618926222
H           8.02450011655734   22.48270148141525   -3.74084682177346
H           7.56747700740731   24.51203933827825   -4.98510520826971
H           6.51271793222112   26.10667896664891   -5.67720599167684
H           6.02888197392429   23.81654749862200   -9.28612506800822
H           5.64935029685313   25.83971723688106  -10.56399163225421
H           5.06733681246596   27.85058588480948   -5.32340641027710
H           4.10851553450289   28.53963564015528   -6.63852448716463
H           3.80106715211523   30.10942261254435   -5.03267518838729
H           5.14230661467674   30.84349113271511   -5.85755000778620
H           6.25392386655984   29.14987473453505   -3.78081488970135
H           4.92006080928285   30.03892124838612   -3.08099012923113
H           5.92356857266870   32.16817757273090   -4.02092804926354
H           7.34197741494806   31.24214540427325   -4.47926372963987
H           7.69634518400072   32.31132630817835   -2.28458573145463
H           7.69049662040539   30.55664149287449   -2.10853531377794
H           6.27565249866855   31.49428085754268   -1.63103656198463
H           7.51722892116161   28.28732141185871   -5.43928068639053
H           7.44341049271546   29.93633298924546   -6.10023430445590
H           8.48652195773228   27.63785874387043   -7.78764418571661
H           9.50766010175115   28.39089687675408   -6.57098448448429
H           9.19911215784837   30.60642936241794   -7.66809061991823
H           8.24537048739079   29.84213060899950   -8.93680067869454
H          10.16333484391821   28.38834145036321   -9.52417956041441
H          11.13953702059988   29.16424526546001   -8.27601592374697
H           9.89067301383433   30.58975857897008  -10.67411241757111
H          11.59450826402779   30.15514748665296  -10.51511717330018
H          10.88311494233949   31.35732373352361   -9.43744139148664
H           6.03367686855849   31.37557667918033   -7.47799257820633
H           5.43116748444973   28.43365118952983  -11.44436520750238
H           5.35869738661768   30.88569360486792  -11.65969085681768
H           3.70687097518463   35.43895342570308   -4.77166902550912
H           5.29341381657818   35.79343576506152   -4.05351695379153
H           3.55399475161478   33.38203249184820   -3.32772402299987
H           3.66171319868856   34.87720772845663   -2.38461596528253
H           5.07923731817432   33.83425775186000   -2.55662744195965
H           4.48443297189310   38.22461715475036   -7.42926026389324
H           6.25619045571546   38.19039634344939   -7.40276777037899
H           5.38460150962071   40.14564370906314   -6.11807510614311
H           6.23493394679703   39.02692582494402   -5.04081752080517
H           4.46923009948255   39.05662327035893   -5.06332765230264
H           5.48121931909713   36.04070627217985  -12.45686795105067
H           5.35635541266141   37.68111839697260   -9.87198259510751
H           6.37082280234705   35.60270661716747  -14.85593502289067
H           6.04281180690831   35.03114558791570  -16.51983706294130
H           3.92872936098902   35.74136624258752  -14.42181065911005
H           4.39595835277751   34.10014946484164  -14.88093325276536
H           3.59137733862711   35.15648166773025  -16.05775723174789
H           4.66032829526449   41.35741406794305  -17.03293664093117
H           5.13213826887729   40.72522120490374  -18.63965798520912
H           7.05895155471229   41.58200194376219  -16.41862000917548
H           6.69343807638708   42.52403150582466  -17.87000395310888
H           7.53673276597405   40.97158794874595  -18.00949122689541
H           5.23026335306697   42.96765474475779  -11.79291282878748
H           5.31575612478566   42.63951343980533  -14.84641512810814
