123
 SCF done       -224.292793854278          0.000552866879
C          -8.20448963271108  -22.63983082774093  -15.27314942306700
N          -8.43299540578512  -22.16597049722810  -13.91087504973155
C          -9.50865379388251  -21.19641863455215  -13.84260284372702
C          -7.26799838967915  -21.78368318018148  -13.25262030209662
S          -6.77461120255726  -20.12009016566896  -13.16710675424893
C          -5.31018274165622  -20.51029469170847  -12.31784591654184
C          -5.18005016888021  -21.89984080302459  -12.17467596298593
C          -6.32403681896720  -22.61932200910078  -12.66920621444190
C          -6.37438635344507  -24.02926870583934  -12.47762324409516
S          -7.79694031741024  -25.00058806887157  -12.85419909042434
C          -5.28859789341568  -24.67700860496338  -11.94640250388006
C          -4.13036816159920  -23.97518638851149  -11.58338177704311
C          -4.07303321521970  -22.61242913934706  -11.67560737880629
C          -4.51577790679005  -19.42874146421018  -11.88349077645233
C          -3.54904929733504  -19.45729649285889  -10.92239695414013
C          -2.81367366471254  -18.33161384151897  -10.48061771427331
S          -2.38315077440323  -18.31819404547614   -8.79384623266011
C          -1.89668905271908  -16.65406701834608   -8.83092907476372
C          -2.00732610426507  -16.14144077852953  -10.13848288430316
C          -2.46660851017042  -17.11040479450754  -11.09035133951952
C          -2.42227053095925  -16.75050116670947  -12.46039816479639
S          -2.58192021607786  -17.89711019153224  -13.80373941867286
C          -2.14651028273681  -15.45082673935702  -12.81499102602561
C          -1.83658720245410  -14.48128086294053  -11.85499409359755
C          -1.72115413663512  -14.82469236924253  -10.53557238678823
C          -1.48298182758463  -15.97321792803984   -7.67611534067153
C          -1.39093016695344  -16.54878414668356   -6.44253468360341
C          -1.04265707998399  -15.91776922031233   -5.23471624728176
S          -0.81732089069961  -16.93711146308359   -3.83558955878050
C          -0.46823568825845  -15.57653501780749   -2.81286497030244
C          -0.52309733104995  -14.38894891166034   -3.54440843936318
C          -0.86705787255341  -14.57427622222726   -4.89424552544954
S          -1.15378344866551  -13.27570626578973   -6.05666555082702
C          -1.53974161679471  -11.86974568980509   -4.94621919474629
C          -0.19763959407654  -11.35493439278419   -4.51233985009937
O           0.31744838861115  -10.36750380010630   -4.96522559562416
C           0.52278246876876  -12.25315022423812   -3.51529087421100
O          -0.29318625752423  -13.21207042757088   -2.88292883682996
C          -0.19651661637635  -15.69144519256182   -1.43643408418433
C          -0.14639315134951  -16.87949716800020   -0.77185737733697
C           0.03879439850049  -17.01173820946660    0.61753238793728
S          -0.06151488415841  -15.61262324138715    1.64133247574156
C           0.01637140530710  -16.54392138615987    3.10485280866750
C           0.09527957311736  -17.91979430596685    2.80592964513218
C           0.17611081517431  -18.17895698655421    1.39796708769521
C           0.38080228562269  -19.51500725418787    0.97982347208423
S           0.73194574798384  -19.98888622634042   -0.69753666444406
C           0.32636726917419  -20.53627433884517    1.89723387867894
C           0.09872944843938  -20.27770645286716    3.25292980387651
C           0.01407992581967  -18.99157896496419    3.71251624582889
C          -0.01886243510449  -15.82934999656081    4.31624625856927
C           0.30385266894437  -16.28258656244153    5.56170018106778
C           0.17376336226385  -15.54682650086696    6.75650366787158
S           0.94324957729539  -16.17806651418910    8.19043040681849
C           0.38703532140894  -14.84633363302065    9.15598296724101
C          -0.36901520822728  -13.96272077339676    8.38525984665187
C          -0.51208439194980  -14.36534595154440    7.04545818377227
S          -1.53052584831640  -13.56305188388101    5.84718836679100
C          -2.73496876901231  -12.69960891584920    6.92803532199238
C          -2.03916199065493  -11.43339067941120    7.33709645522819
O          -2.29365452451725  -10.35251341616581    6.87695984683287
C          -0.89078209271689  -11.64017164878016    8.31655107218272
O          -0.90990891484003  -12.86987661632635    9.00445869061850
C           0.67212436116607  -14.70249222155946   10.52854356925063
C           1.40289370777496  -15.58898759053994   11.25583733253661
C           1.69079081938344  -15.44314341288870   12.62895439926388
S           1.14942462379495  -14.03099764270498   13.47014922984519
C           1.87851384124824  -14.51093134986453   14.96526775564658
C           2.48555921976911  -15.76770362423854   14.83513740956958
C           2.39256486500437  -16.29742968334554   13.50327175919206
C           2.97523047321637  -17.56315034278919   13.23960452272465
S           2.92607494178978  -18.29732204714445   11.63244259164552
C           3.58612918602543  -18.25322031270661   14.25971596293903
C           3.62306752054930  -17.74601376771367   15.56404930268608
C           3.08260925771026  -16.52762524932223   15.85971128070026
C           1.77569042999764  -13.59614508979368   16.04952574447563
C           2.52206483091030  -13.54667517721533   17.16405555305345
C           2.30109854332654  -12.52119987766868   18.21736392102473
F           2.02221988721830  -13.07729499637785   19.41737613084187
F           3.39619832576080  -11.75831011979714   18.42435128077491
F           1.29678657533201  -11.67314026234548   17.95647143433101
H          -7.94920261523254  -21.81392184468233  -15.94724122470937
H          -9.11029461258427  -23.12583396884446  -15.63274883638032
H          -7.39041221652767  -23.36145195283622  -15.27735693240335
H          -9.28600745466584  -20.28945498782673  -14.41858778705920
H          -9.67749657039623  -20.92003414934311  -12.80320720436082
H         -10.41404647903645  -21.65241525196028  -14.24065421658654
H          -8.59111415470951  -23.95768793584243  -13.11701272460381
H          -5.33242712706457  -25.74673536728400  -11.81052550445349
H          -3.28269191257431  -24.52886209634127  -11.20972981804113
H          -3.17565282301690  -22.08684308652404  -11.39608319361654
H          -4.76878039360427  -18.47234260709352  -12.32265672653999
H          -3.42354621561032  -20.34888016370802  -10.32465882992384
H          -2.34893211322765  -18.99952033190218  -13.09654295732746
H          -2.13346633791726  -15.19078129789526  -13.86254036534368
H          -1.63544311167822  -13.47111942058790  -12.17640278582532
H          -1.40722273009406  -14.09945190774615   -9.80223089772560
H          -1.22596270500494  -14.93265770567155   -7.79949384884237
H          -1.59606637649431  -17.60923749058883   -6.35716002324471
H          -2.15743253833550  -12.22582843086410   -4.12448062849615
H          -2.06913460160165  -11.13897328962257   -5.55457632452135
H           0.92467131150625  -11.62426369154927   -2.71487671961660
H           1.37258729648943  -12.72476029337053   -4.03015082012765
H          -0.02720936039991  -14.76161171023596   -0.90983310749487
H          -0.32095212965047  -17.78161114510703   -1.34171573285002
H           1.50515845033189  -18.94336619599927   -0.99012387953386
H           0.46653760649244  -21.55117785999036    1.55832274733138
H           0.02191017274234  -21.10643587555435    3.93971165915765
H          -0.14892070933666  -18.80068960914223    4.75898593866884
H          -0.28871953387651  -14.78649545532678    4.21151776560755
H           0.74800089712382  -17.25914149723562    5.68216339297794
H          -2.98825948741479  -13.34677265759389    7.76513033930444
H          -3.60577135732789  -12.49192324960188    6.30917387200154
H          -0.94973260883870  -10.86413157480099    9.08577724345394
H           0.05324205109212  -11.50009619266973    7.77003924275059
H           0.26005140160688  -13.81810528994578   10.99709794960465
H           1.78405279597337  -16.45979235456036   10.74555936489998
H           3.57725544966651  -19.40712119976971   11.98448303912288
H           4.03155184533332  -19.21807837546042   14.06396977622846
H           4.08247401594196  -18.34064689251051   16.33860325468085
H           3.08016699005510  -16.16323975287537   16.87171149074250
H           1.02145034949447  -12.82918939248986   15.91448285496051
H           3.34635595226149  -14.20510566795186   17.37500222670430
