183
 SCF done       -302.289205856802          0.000491004896
C          15.25456836129731  -15.56816913746158   41.55510629169872
N          15.84829768114706  -14.99032187493232   40.37417300117947
C          16.11622769311823  -15.90626185001719   39.29237595633369
C          15.56929548415407  -13.67863959288702   40.09091056912495
C          14.96807810727883  -12.76244957391181   40.90284664392608
C          14.97819868383379  -11.51046342492138   40.21906702086879
N          14.58754880683205  -10.22964618719513   40.38670584474750
H          14.13005427054891   -9.83670942101205   41.19214083300673
C          14.93092691413374   -9.50959079615744   39.25539187475540
C          15.55065226225653  -10.38444329093001   38.35779184072485
C          15.57719844260218  -11.63213669900324   38.96738492757335
C          16.00316985773680  -13.04928098228444   38.77902409135250
C          14.63836141956110   -8.12290319471851   39.14360165359069
C          14.94733522167869   -7.36851475736164   38.06798387416551
C          14.65936372099990   -5.96679817126416   37.92062451727154
C          14.64922391758398   -5.27272141989816   36.65061706510109
C          14.80540864916334   -5.82816632059941   35.37277991508369
O          15.05575624562167   -7.17055473155834   35.20069426676115
C          14.02840637215684   -7.92038127822862   34.57225130679279
C          12.76741644949774   -8.01501882719604   35.42428486688452
C          14.75005024771284   -4.95825517230376   34.29348918107567
C          14.55145737378298   -3.57002289656598   34.44120547978950
C          14.36717343158882   -3.00589871043885   35.71695208472863
C          14.40713492568613   -3.88038632844482   36.79614161899934
S          14.14473043347903   -3.48168575846284   38.48512213818794
C          14.39753070202905   -5.11943625778261   38.95364154524148
O          14.12474188722762   -1.66543315417665   35.71409813288977
C          14.43701062225944   -0.86221630849121   36.83505873042930
C          15.93008636788754   -0.83362545591510   37.14025901752942
C          14.57842158429629   -2.88711545423552   33.19927748652992
C          14.78892141250612   -3.70096226553253   32.12284866785463
S          14.95778039949269   -5.38243736312354   32.61505978791802
C          14.88854795410383   -3.33037970743293   30.75310098145258
C          15.08071839747401   -4.21800498353339   29.74905299498748
C          15.21976022087396   -3.91529359007403   28.37213351326991
C          15.40721237654926   -4.84877340824728   27.38364203785819
C          15.53348587989060   -4.16983698004614   26.15125454978001
N          15.74386894815771   -4.41851038419463   24.83972832331099
H          15.85749839262730   -5.31816139601517   24.40518637655142
C          15.78267952619703   -3.21896333220447   24.16672917464594
C          15.58259487925179   -2.18702882544397   25.09383756912781
C          15.42825034136156   -2.78559486885787   26.33636512617959
C          15.20743559127601   -2.51562937028972   27.78531191644338
C          16.01234315460535   -3.12104411778464   22.76396617887966
C          16.18916720233576   -4.18336432871843   21.95196030999822
C          16.46100203412696   -4.13437223346329   20.53904777595123
C          16.25967009536571   -5.24750513165055   19.63653842959781
C          15.63736648561158   -6.47450855018419   19.92509334079238
O          15.18886933834462   -6.68613178366179   21.19775787831612
C          14.00548829949170   -7.43930863667528   21.40399000923815
C          13.43235196424794   -7.03056293928689   22.75360972848130
C          15.55149488146631   -7.39686821985317   18.88957840114017
C          16.07277657009679   -7.13279918968948   17.60329569665149
C          16.66092742360257   -5.89354820379561   17.29497445140560
C          16.72434226982215   -4.96520709747778   18.32597530484438
S          17.32539576731761   -3.31914719520137   18.23240536279911
C          17.00388712732941   -3.06138025903575   19.90201422574636
O          17.05077274974030   -5.75727956305059   15.99682611337656
C          18.07245881680715   -4.85084259501403   15.63051944577685
C          19.42359739203097   -5.20807148221574   16.23888031783797
C          15.92942021181087   -8.23173448413786   16.71673972512698
C          15.31770885442358   -9.31288275679958   17.27183632045108
S          14.87966396301559   -9.01092048443257   18.94351384828065
C          15.01709476860852  -10.59745708978591   16.71218449913052
C          15.55708163646600  -11.07474169783219   15.58066532260243
C          15.23172785181920  -12.37365475732924   15.03136186705786
C          16.15618674667821  -13.25985821213821   14.36535218483602
C          17.53596419681336  -13.05072286859432   14.18162279454264
O          18.03876541867519  -11.89626077076194   14.70082963640710
C          19.22043309443326  -11.31158667150610   14.19210141695786
C          19.08156291592335  -10.85960754890498   12.74288718327864
C          18.24339982567506  -14.06975493896139   13.55478269288971
C          17.60786874836845  -15.25260837887969   13.11012627304603
C          16.23095670333590  -15.46842735862680   13.29273855772804
C          15.52921920592844  -14.45613645274217   13.93387804781977
S          13.82047454694077  -14.43087530667882   14.33085690810132
C          13.97823264729283  -12.89498404347090   15.08686985357736
O          15.76481250035035  -16.63732092600623   12.77277796665522
C          14.60141274972947  -17.25560210256418   13.28662822303234
C          14.77281832943794  -17.72113867971438   14.72778489242921
C          18.51093585520283  -16.17171570822132   12.51687702592764
C          19.80554088437729  -15.75044352256019   12.50160702344093
S          19.96348335356282  -14.16195375433142   13.22873307629831
C          20.94797322330682  -16.45514389888959   12.01528157538514
C          22.19925876853552  -15.96296733337265   12.07110600210448
C          23.39016760451272  -16.64110409584884   11.62658969307855
C          24.74917033174178  -16.21460603233833   11.89264652145607
C          25.16935295841050  -15.06123772738133   12.58943762046068
O          24.19050088613700  -14.25035697761580   13.05952631994545
C          24.47319275671017  -13.08197837450882   13.80531773770775
C          23.13540597077700  -12.45687575494084   14.17166120252487
C          26.54107848151846  -14.86708541092741   12.71624173302801
C          27.47804151529357  -15.78930187833784   12.19027457113869
C          27.07046711732790  -16.94357593783589   11.49786093527915
C          25.70080663830752  -17.11945879855018   11.35338059957526
S          24.90247022276201  -18.42570259240524   10.50120769876283
C          23.36089808033818  -17.79302494047590   10.89796171337845
O          28.08855685926676  -17.70543525965848   11.01884910648710
C          27.92235556208477  -19.08828435208836   10.76598093494540
C          27.62862159364731  -19.88509933317158   12.03131087985391
C          28.82220429858258  -15.41935185009262   12.43738084183621
C          28.95294283265959  -14.25208731415839   13.12707616643354
S          27.39304353410467  -13.55198111251940   13.50281457304090
C          30.12978907591184  -13.56303434438174   13.56328897008979
C          31.38352677384616  -13.97281447209118   13.34909636164205
C          32.56887741103051  -13.21192574676433   13.83135549614365
F          33.37765397204963  -12.83675540214793   12.81900914736238
F          32.26015492751898  -12.09344185699362   14.50115635485558
F          33.34113410063898  -13.94763316709855   14.65743095847297
H          15.69580248848501  -16.54738752877543   41.73521459399681
H          14.16707035617704  -15.68358718702412   41.46372159278213
H          15.46646219892333  -14.93226287917399   42.41325095206390
H          16.53505281044479  -16.82523941526814   39.70186630051410
H          16.84595050767944  -15.47520015031632   38.61021975373090
H          15.21170502875433  -16.16165908747835   38.72407001919908
H          14.55668700048860  -12.92808336905344   41.88014900444617
H          15.92564551354711  -10.11839167371679   37.38950410927542
H          17.08087305534639  -13.14268893167635   38.63232507803574
H          15.50149012027922  -13.51803692480764   37.92965541455393
H          14.11707903127479   -7.67995954888771   39.98449151816190
H          15.44248477579164   -7.83144997232349   37.23146325718758
H          14.46784530842979   -8.91017037320257   34.42689878357166
H          13.78681206512874   -7.49560708910672   33.58973550998763
H          13.00033929584171   -8.44852789682020   36.39404817755781
H          12.03209441939877   -8.63672790140373   34.92081122144725
H          12.34340382209869   -7.02465959442513   35.57996092149681
H          14.35626306464752   -5.35102158752950   39.99931522575881
H          13.86941943281665   -1.17407455235470   37.71858930860631
H          14.09383631363854    0.13372520505262   36.54012401654268
H          16.12331078865509   -0.13293242655044   37.94729114390491
H          16.48494642654621   -0.52337953153624   36.25774211648749
H          16.27947296154626   -1.81807673109961   37.44166990995538
H          14.44670546189555   -1.82326949189977   33.12339094685683
H          14.80607040599056   -2.27196048256586   30.54646705930512
H          15.14610275476298   -5.26866702682073   30.00752287140011
H          15.45541266344803   -5.91293116631784   27.53019279445937
H          15.56270839365633   -1.14135449626287   24.85528081670937
H          14.25429966641613   -2.01846043484741   27.97446788813690
H          15.99683435910842   -1.89941326269964   28.21889076024985
H          16.02931541287373   -2.11636066612555   22.36573864761133
H          16.12945575612304   -5.17983455702858   22.35637702610616
H          14.22988487525890   -8.51363602395994   21.40252218220522
H          13.28406731642736   -7.23060052973532   20.60544299613224
H          14.12846894659256   -7.28616925845176   23.54828155016031
H          12.49605718820247   -7.55266128594581   22.92686563798332
H          13.25355855069813   -5.95828079268495   22.77462049097028
H          17.27195957532020   -2.11492127028753   20.32748350356449
H          17.79782578154343   -3.82027148031781   15.88043142847443
H          18.11512208720366   -4.93998249736337   14.54113367051071
H          19.39301980836536   -5.12083318380604   17.32211267624067
H          20.18398247734435   -4.53342435199893   15.85666626507581
H          19.69089116760112   -6.23008603815332   15.98005565031924
H          16.26623869652693   -8.18751811774054   15.69817105240945
H          14.34272586539246  -11.21476478891154   17.29136232988456
H          16.29057834205932  -10.49282964032319   15.04747977169356
H          20.07740663290491  -11.98414480840935   14.30443717973589
H          19.37625573221521  -10.44657271025882   14.84363781563382
H          18.93038750566262  -11.71291744214531   12.08642804545948
H          19.98455229548746  -10.33969096546953   12.43645494974078
H          18.23316447737362  -10.18701891540810   12.63858452318499
H          13.10150757694887  -12.43573521624494   15.49919922894788
H          14.45637617566082  -18.11664546599290   12.62792077352439
H          13.72870896507267  -16.60014213023430   13.19309863470150
H          15.63800150596689  -18.37537143132880   14.80730588067437
H          13.88639581691653  -18.26363082264651   15.04278656556607
H          14.91708620094030  -16.87248600248072   15.39188460098224
H          18.18577524983417  -17.11800183171922   12.12523221306855
H          20.73929478401650  -17.43674663701483   11.61226876754516
H          22.34181545719834  -14.98559426561872   12.50150086067981
H          25.06426153309678  -12.37938861493984   13.20560006257133
H          25.03237458044695  -13.33528953114276   14.71389452915428
H          22.58100353274153  -12.20894998528762   13.27039765381628
H          23.29923182637126  -11.55373520993880   14.75146530986960
H          22.54651325470765  -13.15740256821583   14.75750201977871
H          22.49798537246432  -18.31933268009440   10.54196431831420
H          28.88736241473739  -19.38839823002562   10.34825031587892
H          27.15065136488760  -19.26383391668499   10.00891806522621
H          28.40521201157979  -19.70821591253103   12.77181570162707
H          27.59906493329665  -20.94439752194180   11.79437420411067
H          26.67069085707250  -19.59616786787371   12.45676136972739
H          29.64501477158737  -16.02022655985295   12.09921168051194
H          29.95880720446771  -12.64246033999417   14.10682028779011
H          31.63173309337295  -14.87587491469871   12.81601367540777
