83
 SCF done       -171.180653947970          0.000508963893
C          10.83601453655404   -4.55545484707818   -1.40265311987568
N          11.26113453923077   -3.37935729136316   -0.66422863857203
C          12.65413714825546   -3.43142865729882   -0.28364734951016
C          10.39569164162975   -2.90110484261414    0.29385269797590
S          10.82124120373908   -2.89262209516452    1.99181707950362
C           9.29074956801039   -2.15727583988451    2.40431565439167
C           8.49598157469527   -1.99206606081141    1.29026725902849
C           9.13845872782294   -2.38493016646473    0.09167929090511
C           8.53079376026097   -2.18686807736253   -1.26075313199592
C           7.08931812703477   -1.49754314662506    1.31990418242109
C           9.04671341673364   -1.82799041671342    3.76948904876413
S           9.78715545273124   -2.76242537990071    5.04046385869991
C           9.08027991456597   -1.78898661139488    6.30233439565171
C           8.31124183903521   -0.79717828822304    5.72834919631996
C           8.29670337880147   -0.81203519293826    4.32572230155804
F           7.66281379989872    0.13055654403117    3.61081560024330
F           7.64947334892338    0.11467111149753    6.45366428587241
C           9.29883671387834   -2.01427294887164    7.68428526929836
C          10.08310310139442   -3.00156157896546    8.17517814461687
C          10.31399434950587   -3.23520545791309    9.55539822648183
S           9.56294269582937   -2.22442677376000   10.75348760745266
C          10.31312857081515   -3.12253298879142   12.04398582505979
C          11.10438636640251   -4.15334596008874   11.54909336580684
C          11.10357168551352   -4.21493308020824   10.14398631251135
C          11.88041723270455   -5.24021101458815    9.38293065261239
C          11.86738590813133   -5.08769202317562   12.42442749784906
C          10.06508295155965   -2.74887795466454   13.38781928807787
S          10.74952422443081   -3.55568477082018   14.76882393010058
C           9.95690110403253   -2.50909342405772   15.91326826070749
C           9.19904703772440   -1.57783072810313   15.22291311156758
C           9.25938063489390   -1.71014472647799   13.83389691854592
F           8.59019718113405   -0.89890037469013   13.00359323465445
F           8.46744132787383   -0.62792606713118   15.81937588010847
C          10.15230713978795   -2.71443729785752   17.30211579677235
C           9.57732094838796   -1.97503885029210   18.28384726254441
C           9.76542535362152   -2.19065323050262   19.67384503424923
S           8.93423823383620   -1.17778326787911   20.81765869957719
C           9.61210027454885   -2.00522513864194   22.19117983204840
C          10.44660656506958   -3.01768225304436   21.74695404492289
C          10.53306098138609   -3.12277176337414   20.35572669256906
F          11.29321996516607   -4.04560584612223   19.74957937430978
F          11.10713804533110   -3.82263709910334   22.58543114862562
C           9.32697845765195   -1.67319485521121   23.53866120645903
C           8.49143493893414   -0.67112928973248   23.90136236224572
C           8.16699765157830   -0.31072044028889   25.23696055509750
S           7.06155807204018    0.99271050916961   25.53970538675082
C           7.16342888200858    0.81404316315885   27.26343357542797
C           8.02981603597792   -0.21868806953677   27.56774127088736
C           8.58809616839898   -0.84334550658082   26.44462768049312
F           9.44849482550877   -1.86328472010697   26.54499603753527
F           8.31702954284419   -0.59639482062142   28.81637855553492
C           6.40354578542177    1.66984250287501   28.12035900088865
C           6.38274710501998    1.60723998988202   29.45628086722802
C           5.54547031892040    2.52883527937423   30.27662479817898
F           4.51349402001454    1.88712146777683   30.86147569847190
F           6.24497422722713    3.08980569290421   31.27831944649491
F           5.00891455271720    3.53689680223068   29.57428292748430
H          11.36108566856977   -4.58104738301978   -2.35770236130800
H           9.76685349428271   -4.51486463921972   -1.58610312131813
H          11.06199790785995   -5.47763346788959   -0.85208154707041
H          13.25158468554411   -3.63205861115121   -1.17188783170523
H          12.85224807820817   -4.21377493946155    0.46160289974990
H          12.95091381343083   -2.47058253436121    0.13285694883932
H           8.02560207858479   -1.22422131475919   -1.30105218932720
H           7.79628268742542   -2.96256500034979   -1.48281386838323
H           9.30412643531511   -2.20691855550489   -2.02380529954557
H           7.05552529833687   -0.41886152919763    1.16924174909208
H           6.62318214057145   -1.71818954077988    2.27664471374447
H           6.51051469701067   -1.97286765431366    0.53177286431057
H           8.79144374634513   -1.33359666497074    8.35593105081796
H          10.57281920392442   -3.66058477719111    7.47069386866148
H          12.94050124695882   -5.16419319162753    9.62247099015020
H          11.76406250319556   -5.11211959611835    8.31220774112148
H          11.54115379987338   -6.24171386486887    9.64611146419884
H          11.19322831910049   -5.61953986889145   13.09551845741529
H          12.57882116370627   -4.53876314294014   13.04113165377152
H          12.41116380569047   -5.81510468088609   11.83112869597946
H          10.81093214402610   -3.53311558383495   17.55188534810027
H           8.91736278196370   -1.15780296781589   18.03424184038316
H           9.82406499589487   -2.28322257903111   24.27942780159965
H           8.01296919662511   -0.08202577779691   23.12971597315291
H           5.80980412099357    2.41744573006332   27.61059853821977
H           6.94392483137380    0.89144830827233   30.03462022783471
