300
 SCF done       -438.145895246957          0.000953802232
C          33.65974940730130   49.85587822450380  -39.77167487934465
O          33.20052781578613   48.53004655999916  -39.83660882166308
C          32.92692572836570   47.87125154123206  -38.67106410070195
C          32.48665607940993   46.55345264340373  -38.82725491970596
C          32.18694089999081   45.80799016742940  -37.70313194541174
C          32.32885133287981   46.37993970755043  -36.41094499460307
C          32.76108064576323   47.67992963914137  -36.26975625606223
C          33.06233143484484   48.42759112148129  -37.40220263991993
C          31.96356856179155   45.36987346123918  -35.44028272751729
C          31.59868487867614   44.18559107697303  -36.19753986806347
C          31.72688586073061   44.44467890662463  -37.55358489781145
C          31.49032864165740   43.44610783094667  -38.63418649044148
C          30.48743102272701   43.92485699153600  -39.71343822126497
N          31.10538047478529   44.67191920373075  -40.79390669712708
C          32.84981808248338   42.99759588144494  -39.23340759488239
N          32.79215102042831   41.80919226898154  -40.05722142375406
C          31.20344047537915   43.01343180195736  -35.50518219699635
C          31.18846870831806   43.03806420679761  -34.14649217348611
C          31.55658148956352   44.22112316343505  -33.39027076131212
C          31.94576756589818   45.39640260835837  -34.08267662813228
C          31.45308117386954   43.95400578009317  -32.03542663233321
C          31.74034954286982   44.91808389210019  -30.93781959957519
C          30.46983957060003   45.21199022321977  -30.10399105656256
N          29.35747107700943   45.73916461090722  -30.86690515514157
C          32.90857239116586   44.41643194025279  -30.04892838640980
N          33.45472065460144   45.39547692098201  -29.13680424434979
C          31.01181804348792   42.58328471661746  -31.88419695682001
C          30.85022071438213   42.01785242838632  -33.17658784954315
C          30.44729597533234   40.70565688945645  -33.32643406798697
C          30.20858880884804   39.94250366269784  -32.19453255074627
C          30.35631378462531   40.48295958234839  -30.91691190214805
C          30.75480327594195   41.81090336392856  -30.76404415628498
C          30.12510774568530   39.65934202155166  -29.72205930209864
C          30.63572790962389   38.36312181736236  -29.66071403153489
C          30.46558180204192   37.62411644184136  -28.50242776178687
C          29.76219152777772   38.17441389634078  -27.40140423213526
C          29.23504107447835   39.44822256967483  -27.47328009783762
C          29.42685133864538   40.18391348627445  -28.63224250927523
C          29.77234651751330   37.18511077596675  -26.34411974676403
C          30.50815054083630   36.03816676417090  -26.85248469881181
C          30.91718496761874   36.29596009750329  -28.15064414168589
C          31.64382512125760   35.39516705435122  -29.09229174617463
C          32.93981176660572   34.81594401892326  -28.49765191883683
N          33.91803700172433   34.64642582179020  -29.55780882982421
C          30.69732757390721   34.27904764284958  -29.57327358985792
N          29.67387587495026   34.85135171547521  -30.42955433063970
C          30.70356407411974   34.91900731422892  -26.00405426131934
C          30.19394364351241   34.96248779408823  -24.74500694747777
C          29.43289440347899   36.09724625255503  -24.24697450858742
C          29.24066506542972   37.21785878155266  -25.09483352037916
C          29.03836296581550   35.84765550579064  -22.94382806865356
C          28.23521808737730   36.71801325427271  -22.03539720495164
C          28.97471617679670   38.03257136130856  -21.72317326394694
N          28.49226431605208   38.56826100979547  -20.46385509691366
C          26.83216979789304   36.96629574723111  -22.61593838077245
N          25.97163584304975   37.60572147071596  -21.63030715380599
C          29.56401567507965   34.55595747308666  -22.56183177141148
C          30.27179013188133   34.00696558552367  -23.66099894549209
C          30.89918680295617   32.78267332206399  -23.54556465237844
C          30.83163005518431   32.10785307019333  -22.33718923385921
C          30.13919874619181   32.63258718082102  -21.24263871532022
C          29.49447802207013   33.86445820247451  -21.36499380900184
C          30.10359010371059   31.90309393190362  -19.96797753469673
C          30.02915767493292   30.50893640947024  -19.95581802124605
C          30.00690359885102   29.83078833318447  -18.74863416671661
C          30.03406321793802   30.56243291740748  -17.53232260126057
C          30.11127239166548   31.94029200831023  -17.54180315609925
C          30.15299153246623   32.60090189371940  -18.75892467311376
C          29.95669179920026   29.60902868243600  -16.44540899974788
C          29.92386141529853   28.29205236374771  -17.05574172540557
C          29.94819052944186   28.41891344781943  -18.43364349289525
C          29.90981018878556   27.29187103144390  -19.40983843094139
C          28.63928317325939   27.34757796703853  -20.27924218681403
N          28.32972474236038   26.01345084734415  -20.75893627632553
C          31.19281466294979   27.25963525807054  -20.25824887034505
N          31.25950217677381   26.03427977293373  -21.04223685262035
C          29.85219056958419   27.14470840728765  -16.22673474074157
C          29.76627048189719   27.32668060633663  -14.88294776852440
C          29.73715422689949   28.64746164859037  -14.27292907735746
C          29.86956704368867   29.79149074966646  -15.10247821454333
C          29.53285676639730   28.51728328347221  -12.91025007446861
C          29.42241605089614   29.59394792862028  -11.88205844004000
C          30.71604643270588   30.42523526069599  -11.79648334874092
N          30.81173917151105   31.02682115575920  -10.47966959275205
C          28.18619769180907   30.47212281270717  -12.14592692474063
N          27.94534864647001   31.37522398728124  -11.02984158839573
C          29.42039643882990   27.10648740732759  -12.61263551908292
C          29.60209741429901   26.36962621807770  -13.81077821561692
C          29.57748416822722   24.98824291810249  -13.79678485384864
C          29.31345145934915   24.33681440914773  -12.60423649971059
C          29.05679036216090   25.05076831117040  -11.42923684575578
C          29.13500831814896   26.44551414592166  -11.43051756102762
C          28.61442170408749   24.33963330165419  -10.24287876003444
N          27.66721439528940   24.87242269496047   -9.41783759162541
H          27.26748396919862   25.78672108165199   -9.54706741200118
C          27.30019681608364   24.00161941609084   -8.44114501898335
C          28.08929722642364   22.84891330301959   -8.62200115617922
C          28.88582575320868   23.07853698108574   -9.77390376855888
C          28.17973973652146   21.61400484625088   -7.84904241761059
O          27.89544880626657   21.50916712006207   -6.67018755666433
C          28.71452023705563   20.42012122903537   -8.60979757459264
C          26.13161035195639   24.29300665388326   -7.62599879361090
C          25.83803033132740   23.55871522547920   -6.47198678761044
C          24.64109237814836   23.76424830141698   -5.80921748578470
C          23.72964001386262   24.74565232904348   -6.27650660461491
C          24.03885911841310   25.51438512484257   -7.38043888717456
C          25.22543426463782   25.27924442415224   -8.05018057103725
C          22.53020232824252   24.65418422759262   -5.47710108759689
C          22.75614107310575   23.58848947832738   -4.51765838282350
C          24.03430035849854   23.07325488620421   -4.68907782421430
C          24.59355638059063   21.91617230773846   -3.94856769124080
C          24.44635004844758   20.62177736833697   -4.80327429403823
N          23.09003185534355   20.21007090739787   -5.06873904742546
C          26.06265199339580   22.07291338711811   -3.52191723576090
N          26.32792572916988   21.16189362433955   -2.41835164774251
C          21.70131437369750   23.19768188628383   -3.65406287384631
C          20.49723800281525   23.81755057362638   -3.78339568680062
C          20.28266676839414   24.89652355125686   -4.73304774015975
C          21.34399840679353   25.30969980194045   -5.57433657298893
C          18.96317110025918   25.31021263905051   -4.67801329461178
C          18.36246764976129   26.42539850785582   -5.46835295584064
C          17.34802557908729   25.89664362647746   -6.49945634273206
N          17.21776277414077   26.85534424926509   -7.58186922251621
C          17.74739557240693   27.48235313359806   -4.53500790948986
N          17.36316589038109   28.67501782219786   -5.27871059632504
C          18.27947589710882   24.46776890243670   -3.72537362170443
C          19.21924524705266   23.57113478298930   -3.14964713595213
C          18.81397513069237   22.64429072432043   -2.20826578310463
C          17.47341777652831   22.57557334570685   -1.86202558823849
C          16.52926089215039   23.41978864662636   -2.44976750190080
C          16.94374094036488   24.37715172192727   -3.37545233236579
C          15.09242019359663   23.29147303203809   -2.17165433316089
C          14.29721980561528   24.43642136130693   -2.09836190406586
C          12.92340762777709   24.31599737472647   -1.97227843717660
C          12.33968268860829   23.02436193483589   -1.89269993198193
C          13.12899333550401   21.89198502866376   -1.91946314264751
C          14.50052951111525   22.03204272925740   -2.06342888594349
C          10.90383073749029   23.19771922875855   -1.81732309232127
C          10.65994147143213   24.62863797837492   -1.84681689452138
C          11.86583935146296   25.30301425532360   -1.93969069837203
C          12.03523005359753   26.78130036308336   -2.02123277502094
C          12.77924571590181   27.32773166282755   -0.79031707942043
N          11.95404865336718   27.16302722659354    0.39482728612635
C          12.74213969866282   27.20561467733550   -3.32103348804701
N          12.68520926916377   28.65150440087869   -3.46543061095057
C           9.32692954498130   25.10298702786814   -1.80390911791869
C           8.31806772928205   24.19254125534791   -1.75097077125074
C           8.55753098736392   22.75764814755490   -1.73616677825401
C           9.89751840087481   22.28736978941481   -1.76722180547721
C           7.34469149974561   22.09132668573418   -1.70004045308471
C           7.08924237981550   20.62007232816206   -1.67920914211569
C           7.62295253651268   19.94810921169309   -2.95402980230515
N           7.04280156825422   20.59243194249347   -4.11930261685294
C           7.66385557524146   19.97057778925935   -0.40909756461253
N           6.91355537149414   20.44451847319473    0.74077846043811
C           6.29470869271584   23.08495497706935   -1.68505345276807
C           6.88443541972779   24.37724961843025   -1.71620821429535
C           6.10167576671696   25.51734709348959   -1.71326486168417
C           4.72453601079673   25.38312641155474   -1.68159517307099
C           4.13829612863472   24.11266331411040   -1.64903785443846
C           4.91826083712085   22.95330909632148   -1.64754923543952
C           2.73096031223347   24.00260444521747   -1.62210988442163
N           1.58725080671806   23.91395405300533   -1.60605302794131
H          33.81452753207943   50.16588322830513  -40.80420013005136
H          34.60784195130849   49.92954474326076  -39.22820177587017
H          32.92219711823622   50.51731781583386  -39.30433915271109
H          32.36803170115575   46.15074941945730  -39.81971173965043
H          32.87128314818245   48.12619924334830  -35.29205890914731
H          33.40146396361396   49.44407860994833  -37.27787025053649
H          31.03778709774057   42.56322196294138  -38.16520816952616
H          29.75996769403550   44.58165484944261  -39.22936743184649
H          29.93546435367964   43.04097688270008  -40.08042716954228
H          31.62661543785989   44.06181496299229  -41.41333974400406
H          30.40094453183342   45.15017713537038  -41.34194973647880
H          33.53688690283266   42.79092039476821  -38.40834046971880
H          33.26792921721837   43.81230883174335  -39.82592506855300
H          32.14214752791867   41.92753238135608  -40.82621825096913
H          32.48486209710345   41.01059265227747  -39.51236978209418
H          30.92533481887031   42.11982450586127  -36.04592166338871
H          32.22866397399609   46.28797407098718  -33.54072075429508
H          32.06184870161174   45.86660333529804  -31.39013089018930
H          30.70871864563854   45.94799377187132  -29.32917881757659
H          30.12730078417060   44.29955375824215  -29.61291266967191
H          29.63182979540973   46.58560717670921  -31.35566931247686
H          29.06694947259472   45.06525040986129  -31.56830935074537
H          33.72135294929572   44.08870124489023  -30.70374422491166
H          32.58591192757418   43.55806379779057  -29.45822608586445
H          33.78149973436501   46.21381315104293  -29.63913945705846
H          32.75979787412422   45.69406048254464  -28.46210285748600
H          30.32210565984940   40.27485743128087  -34.30925733825646
H          29.88550702746113   38.91683248143558  -32.29785414788972
H          30.88528123895798   42.20236730757141  -29.76685260990400
H          31.18241469657444   37.96324017035030  -30.50120566305651
H          28.68918687564777   39.87198945141236  -26.64282384998095
H          29.01388200592313   41.17986830878224  -28.70383202542404
H          31.93509623969403   35.97346706265159  -29.97292112928710
H          32.71957619441800   33.87823158877596  -27.96061372257252
H          33.35699514077904   35.52626285057148  -27.77834308353210
H          33.58355278059411   33.98113425681252  -30.24681062203590
H          34.79379340908587   34.29708605404486  -29.18540236560237
H          30.28971815423091   33.75169664511956  -28.69334334546942
H          31.25713149412982   33.55558832704655  -30.17449225088291
H          29.14331301037130   35.54884751673435  -29.91710876060709
H          29.02879328267284   34.13502760170536  -30.74398437613986
H          31.25639084141856   34.05817496176744  -26.34806527779359
H          28.69719107729583   38.08365375027708  -24.74868048728472
H          28.10979613435282   36.20493100575338  -21.07682767159683
H          28.85692574156685   38.72740821926933  -22.56995066537987
H          30.04421722560165   37.82158875671676  -21.61281371887705
H          27.48995529209331   38.72127177396689  -20.54080854456620
H          28.93853174262208   39.45720052314922  -20.26482918729864
H          26.43198320149886   36.00163097456510  -22.97401097856947
H          26.89689142739321   37.63508913798880  -23.47730723314926
H          25.83415499017328   36.98568627091412  -20.83782519921137
H          25.06058613442097   37.79824200748895  -22.03339762437270
H          31.44772162715462   32.35949762350786  -24.37468693676947
H          31.35263409572665   31.16779008811099  -22.22888171741592
H          28.94065278629568   34.26287459241171  -20.52795760465393
H          29.96272529307978   29.97754997691258  -20.89213228611473
H          30.14575925085726   32.49954155455070  -16.61821087759884
H          30.24472901794519   33.67676286370524  -18.77399327656645
H          29.85549195561238   26.34967652831177  -18.85508869582777
H          28.77907261382620   28.08211153247619  -21.08791188505213
H          27.80040496864559   27.68682380634624  -19.66147277621212
H          29.11949043716526   25.67382651912798  -21.30170892070541
H          27.51274362090999   26.03524397540082  -21.35973981277757
H          32.05622011311115   27.38505618535362  -19.58176902173900
H          31.19868080135106   28.09766960027696  -20.95873698612982
H          31.32165138357387   25.23129272160877  -20.42358365326259
H          32.08834842647511   26.03746672008782  -21.62744809760721
H          29.84277204193222   26.15446396446085  -16.65840180528182
H          29.88481937748912   30.78253897926870  -14.67556091480206
H          29.29792471116172   29.13112356362654  -10.89801087475764
H          30.73425157501124   31.16001324775316  -12.61688703860240
H          31.57577624401973   29.75888790066362  -11.92626872200880
H          29.99987958717725   31.62155153445655  -10.33551040097348
H          31.64593081306863   31.59985927631171  -10.41277740413995
H          27.32921082290240   29.80768107861654  -12.35506207373187
H          28.34919529716882   31.08489572365061  -13.03531415830122
H          27.71430033349125   30.84423217374343  -10.19572905967149
H          27.16213068561292   31.98637602438750  -11.23512320962288
H          29.74010052452461   24.42215260770299  -14.70188644073127
H          29.26040429428043   23.25909767765055  -12.57884466083922
H          28.98438599769407   26.99481033064572  -10.51153472984115
H          29.61650307368504   22.40964762472035  -10.18061386578265
H          29.79097411072470   20.52344546777271   -8.73288372497945
H          28.25494299433633   20.34497802345323   -9.59135296336473
H          28.51869992291201   19.51790430667268   -8.03567878672618
H          26.53740960212447   22.81644782312900   -6.13617807096777
H          23.35071959680671   26.26367548588574   -7.74401776742546
H          25.40950415733356   25.84715748674141   -8.95083906735907
H          24.00466078921708   21.76926514471788   -3.03456872870315
H          24.94971430436699   19.81890386029740   -4.26090631362680
H          24.95173694609825   20.77041825514723   -5.75980393475363
H          22.58957487307571   20.03879708686777   -4.20339187027607
H          22.58794137688163   20.92504429507093   -5.58487803057017
H          26.25778928815430   23.12886052599701   -3.27018001413207
H          26.72245522324355   21.78691746734282   -4.34111984432906
H          27.32371139872435   21.10164929342740   -2.24168662661619
H          25.87998606014342   21.48936177946496   -1.56822007098907
H          21.84464299824854   22.40329136303320   -2.93493695312262
H          21.19269350208975   26.09211660315279   -6.30363775344209
H          19.15531695750193   26.91357537879131   -6.04430335822224
H          16.39431652394554   25.67340634793850   -5.99496814844455
H          17.72771425135598   24.96018600607632   -6.92269886342177
H          16.91065413644215   27.74272800248797   -7.19192433546284
H          16.52237626764981   26.53974107615011   -8.24964342685205
H          18.47329780250370   27.69421512736360   -3.73094509956295
H          16.84346793697716   27.08815658868178   -4.06591798524938
H          18.18764050142149   29.10922843399194   -5.68282991198740
H          16.93472308012093   29.35041224868413   -4.65388196997778
H          19.52588244600565   21.97008835894208   -1.75430171945844
H          17.15024290665852   21.85748394463821   -1.12256235652137
H          16.20376047499393   25.00105051515281   -3.85170367826158
H          14.77206341081034   25.40473886199881   -2.13396389464646
H          12.68824073821687   20.90795094673417   -1.85129894196541
H          15.12250233952349   21.15149609067582   -2.12895547109024
H          11.04122082501475   27.24313084021738   -2.02915086383379
H          13.04765698281837   28.37477280289851   -1.00344902469626
H          13.69762928238895   26.76008557851892   -0.62936982210234
H          11.12285111587370   27.74164117605258    0.33003613056613
H          12.46438651874880   27.44641208082742    1.22333260307657
H          12.27744837859037   26.66353819098410   -4.16233173232364
H          13.79582338477869   26.92568428385406   -3.28392309718971
H          11.72395112856225   28.95527311602816   -3.58535621774903
H          13.20421271973210   28.94323187516146   -4.28631681967243
H           9.11979834336108   26.16334001318743   -1.81677723955783
H          10.11263931161983   21.22943306672221   -1.75928563940151
H           6.00716623847192   20.45981390463708   -1.64609360797499
H           7.40594765057232   18.86645342646331   -2.89495987912191
H           8.70599635869218   20.06994582802334   -3.02152336075179
H           6.03309779649160   20.49161251315566   -4.11333278088651
H           7.39322417551596   20.16990582298752   -4.97144532243521
H           8.74322701158003   20.17733240878469   -0.34188010200523
H           7.52920178551480   18.88592162686104   -0.46720971291824
H           7.01830228490571   21.45020512119029    0.83229459423627
H           7.25582268080124   20.01520025148830    1.59299291251095
H           6.55091385307466   26.49920623304806   -1.73631015629908
H           4.08770344122147   26.25570272877465   -1.68125696421763
H           4.43583335699446   21.98784803258959   -1.61316300234311
