126
 SCF done       -226.185181360783          0.000923466837
N           0.72823015691277   -3.08849754789400   -0.12396653889772
C           2.06568358602383   -3.21111948776893   -0.13578935259286
C           2.81419745196673   -4.24313254677445    0.42071811004298
C           4.16942645781013   -3.98495314693689    0.18999978366244
C           4.22351419753194   -2.69978421831466   -0.56386269220588
C           2.95590614562746   -2.25407752630586   -0.74953537713990
O           5.38718547607112   -2.16860630282891   -0.95392270219310
C           5.32312443873052   -0.96716568387654   -1.68933124241294
C           5.27150574054905   -4.74568609189111    0.55887884233964
C           6.62739076065594   -4.46971210540930    0.33336718246441
C           7.40435798445171   -5.51607085669608    0.85461282592505
C           6.49535642354607   -6.48815308799633    1.43396421941950
C           5.22962444111726   -6.03771990355290    1.27179644885535
O           4.05673148796592   -6.58995302582617    1.65389494838275
C           4.14547454490095   -7.81764123834773    2.33835457936911
C           8.79785531549431   -5.60617736698809    0.82051519406431
C           9.68746650066767   -4.63188365275394    0.31811711997106
C          10.98962147700271   -5.08566080504084    0.45879206589222
C          10.89522649247221   -6.43306872950396    1.08201665705025
C           9.59062945765686   -6.72056927504880    1.29784907288733
O          11.99679708038816   -7.15464989981347    1.35357387163720
C          11.79267521533762   -8.40204167416750    1.97460087271867
C          12.17965856977444   -4.43228973379756    0.11472398160919
C          13.48051027259538   -4.91276078299764    0.21378492518297
C          14.38015831380490   -3.91366269507994   -0.22180029065435
C          13.59158272015455   -2.75979995542721   -0.60689813851584
C          12.28438457969795   -3.05787202436141   -0.42065819539164
O          11.18489124218762   -2.30509463681594   -0.63834912982774
C          11.41095236416650   -1.00109384211726   -1.11766635521982
C          15.76634485246397   -4.01922016442639   -0.26689825700766
C          16.52666334722645   -5.17027568943375    0.06549240911127
C          17.87089512676400   -4.88910004416476   -0.09674604296762
C          17.95120310368089   -3.47405509835091   -0.55281946108347
C          16.69403354987435   -2.97914121018360   -0.65565563264914
O          19.13576906959873   -2.90680194273102   -0.79140184305538
C          19.14484356272668   -1.56690752472042   -1.22257065991450
C          18.97545482208449   -5.72769851920567    0.10871146989164
C          20.32434402635576   -5.40851812431080   -0.01240331489326
C          21.08891438163363   -6.55372953311170    0.29018006998468
C          20.17579661856877   -7.63252538749274    0.60707412793817
C          18.91298799243917   -7.14988722052370    0.50488476406765
O          17.73131414484409   -7.77236498715490    0.69321610959142
C          17.79175851117786   -9.13744809499206    1.03203655828434
C          22.47816432704089   -6.61060319787712    0.28161484815552
N          23.21312655623642   -7.74127844742485    0.56056286285891
H          22.80511904155493   -8.63529925288597    0.78080118790771
C          24.59372754303013   -7.55856291418522    0.44538810538467
O          25.40415788394280   -8.45088562295106    0.50167118815376
C          24.71045581084009   -6.13327452656726    0.15182936631990
C          23.42063838477569   -5.59745464556476   -0.00351626801692
C          23.54322036634873   -4.22580807659895   -0.46008032662928
O          22.73262452954945   -3.35842119242932   -0.71374740214896
N          24.92505561469680   -4.04837755396474   -0.59320750537948
H          25.32841037035027   -3.15145985901939   -0.81390845134106
C          25.65029509550101   -5.15138954191756   -0.18044762875178
C          27.04317179206159   -5.23144545739577   -0.12659561890350
N          27.91633441819772   -4.44402364701333   -0.85486265469715
H          27.63330038887248   -3.78659102977806   -1.56440769589485
C          29.25575398835025   -4.81049154871730   -0.67737068564731
O          30.17540731376488   -4.28622306483647   -1.26702099763952
C          29.18905064878971   -5.86337983032007    0.32154766948964
C          27.83503892664956   -6.09085736846210    0.64087133956059
C          27.77000356167386   -7.02705895558668    1.75462678988411
O          26.86601593534497   -7.39964771809209    2.46355666266971
N          29.11180268607977   -7.38123273143778    1.94237774760519
H          29.39928014894915   -8.04148656057996    2.64656585269880
C          29.98204618602603   -6.69728435667548    1.12617219740881
C          31.37506193932969   -6.85217039408520    1.15132553059395
C          32.28025181519504   -6.14888555519463    0.36558863671909
C          33.58623587228242   -6.58981333309535    0.67720157766666
C          33.43263050144974   -7.63413388284828    1.72246836201439
C          32.11825907731453   -7.77922177760897    1.99897011971786
O          34.50311818044109   -8.26261767601044    2.23496058414686
C          34.25057522394479   -9.23743228497574    3.22032169369368
C          34.77643774177869   -6.15885537292255    0.13269930210646
C          36.09350282181973   -6.61345227220214    0.43479132161254
C          36.96290209143561   -5.91030591035470   -0.36164481398650
C          36.24287197353285   -4.97920546774831   -1.19991804771640
C          34.92587039303145   -5.11976317792049   -0.90978577935010
O          33.85092923538716   -4.48835469492009   -1.40638542837420
C          34.08593491038009   -3.52128465659252   -2.40248541653133
N          38.35931260604509   -6.05805893114682   -0.37812160930842
O          39.00019927579906   -5.35666280061273   -1.14624261257640
O          38.85988129034794   -6.87864389876632    0.37572266990031
H           0.16045209362329   -3.79363003897300    0.31091976483914
H           0.28075108815003   -2.30499207315643   -0.56491625780227
H           2.42745572228788   -5.09418680014257    0.94177780144479
H           2.62722070349046   -1.36420163432720   -1.25097806453113
H           6.35084227499775   -0.70020633852166   -1.92819594067955
H           4.86323663311381   -0.16874256018680   -1.09914570313091
H           4.75451382168351   -1.10379723424311   -2.61415138292408
H           7.00263445341089   -3.60099276862193   -0.16703793415515
H           6.81032563493175   -7.39449785699658    1.91260023162518
H           4.71595240903799   -7.71030620451289    3.26642605711969
H           4.61689817103423   -8.58382052590498    1.71488728708957
H           3.12388374681153   -8.11421546240089    2.57038986861989
H           9.40694395559036   -3.68717511360661   -0.09943245510165
H           9.17967145755771   -7.61087165398255    1.73145496841385
H          12.78056896902988   -8.83369174735449    2.12615558047175
H          11.19498138297864   -9.06465893425415    1.34071289660491
H          11.29187377656774   -8.28274543209868    2.94051670595842
H          13.75306236772177   -5.88467350726624    0.57015166993485
H          14.00793269886924   -1.84531504170735   -0.98085499273652
H          11.90750126277651   -1.01956183344258   -2.09314249968752
H          12.02176058646874   -0.42368484556664   -0.41649681826862
H          10.43097185494525   -0.53659671949878   -1.21543504505859
H          16.12558220460318   -6.10976225594451    0.38589612772292
H          16.40462851475507   -1.99187552064474   -0.95797107231404
H          20.19394174562064   -1.30535452208982   -1.34736971411061
H          18.68320205590294   -0.91057034938033   -0.47818012684839
H          18.61678926268731   -1.45625284480216   -2.17498451874490
H          20.72979813357985   -4.45522304995080   -0.28605134927799
H          20.47437785409523   -8.62752057684418    0.87615072444611
H          18.30886201456499   -9.28561726665419    1.98532359050160
H          18.30206939787404   -9.71448759442714    0.25440473196060
H          16.76103250689850   -9.47670543043836    1.11947607886994
H          32.03306071897196   -5.39591338317182   -0.35573330362061
H          31.66931139736892   -8.45270387215218    2.70322356864653
H          35.22082817386534   -9.63920039252339    3.50591841693948
H          33.62106773904093  -10.04145808104808    2.82625990577475
H          33.76345878073938   -8.79520585740861    4.09520605960554
H          36.35007169803004   -7.36696099307171    1.15050653102077
H          36.71940566196059   -4.32472119217468   -1.90152309001172
H          34.56586667000267   -3.96832112557155   -3.27871999375370
H          34.71801581480182   -2.71170244508566   -2.02403113931492
H          33.10632611676905   -3.13224834743874   -2.67351482245785
