168
 SCF done       -248.717952320759          0.000826330721
N          20.25520827407302  -14.69109024890958   -5.09686472372906
C          20.42099252940016  -13.36877098426412   -4.75931722420077
S          21.82425622669431  -12.85977360700744   -3.88829629705703
C          21.32940334648121  -11.17199905226782   -3.98050960148038
C          20.11894395001301  -11.06543455695980   -4.64219007579272
C          19.61412999054031  -12.30735144427306   -5.09748414036362
C          18.32455937526208  -12.49702849794487   -5.84391308379595
C          17.15594155812250  -12.76126498206609   -4.89116781311300
C          19.39854529347898   -9.77489037010024   -4.88599611094810
C          19.89647593472497   -9.09788356161359   -6.16534857456171
C          22.21968148285784  -10.24520094804427   -3.37708337736146
C          22.19350356618500   -8.88848860177217   -3.38440302466268
C          23.17756001833111   -8.10622736600126   -2.72505345667705
C          23.13917171717729   -6.74940519163086   -2.72681834026049
C          24.04090827369936   -5.81404132638324   -2.15117366603408
S          23.45413326342808   -4.18291373105963   -2.00810269550243
C          24.95695497909148   -3.62237678347398   -1.31653183460440
C          25.86011053032323   -4.67918290071851   -1.20854278013084
C          25.35169743153324   -5.90089402958244   -1.68990574033496
C          26.15057465533920   -7.16760283092975   -1.76059718017120
C          26.05658749822472   -7.97854577130362   -0.46655479317732
C          27.21537352180817   -4.53227292011248   -0.58630689404167
C          27.11096193520174   -4.38706581940108    0.93397744254739
C          25.00690533099396   -2.23822772892531   -1.03190434215040
C          26.03565963181376   -1.45141677678854   -0.60313584656821
C          25.88119518462877   -0.05949212965969   -0.44822691261658
C          26.89875729913934    0.79089578269184   -0.11787415313245
C          26.78738773590879    2.19275749839505   -0.01031904749054
C          25.65274812417746    2.95605900549036   -0.13178264724362
C          25.82702725117821    4.34403200430341   -0.04696117684499
S          27.51229893627217    4.76314103241157    0.20885676527628
C          28.01961846686800    3.01248949475219    0.23802069331842
C          24.84238962132582    5.31362482305580   -0.16501493771547
C          23.45568732368990    5.12320880470059   -0.29097477440447
C          22.74341465759802    6.28683261992477   -0.40272238667215
C          23.53476522148840    7.44479026449900   -0.38665526355944
S          25.22457129636698    7.02355127088345   -0.19151687056614
C          23.10889530956016    8.75646378232361   -0.53562948568107
S          21.39530947984203    9.13663371292813   -0.69055486901437
C          21.73330450161639   10.91591491605571   -0.90427870564535
C          23.22380372553792   11.08881887945218   -0.85080022861642
C          23.89457752768903    9.90310096807987   -0.62938364014188
C          23.83959828490286   12.32748665311666   -1.05641540538048
C          23.17225650452074   13.49769858444291   -1.33895194520471
C          23.77553188164276   14.72368542270287   -1.63759494446451
C          23.08130025392940   15.86647441244868   -1.97896633343621
C          23.85029479747958   16.97939007166146   -2.32187701635918
S          25.56723888637956   16.63557223467562   -2.18946400541263
C          25.26296618759693   14.91331401845789   -1.66573992376917
C          23.38535330722620   18.21370929747720   -2.76026861922241
C          22.05041232898698   18.62469503183878   -2.90556543834016
C          21.90985834518320   19.88856855030688   -3.41197838095134
C          23.12950598810546   20.52915091911793   -3.69182999628758
S          24.47109886283584   19.48900507926017   -3.26672086674988
C          23.31693523341943   21.78251605865055   -4.25727623320137
S          24.91840631703194   22.42810650679021   -4.57690852463055
C          24.23638687898173   23.93888309267284   -5.33847470259245
C          22.74054497811219   23.82524545629410   -5.28088299859812
C          22.31615324235939   22.66460575038285   -4.68260215388214
C          21.94913541994410   24.84612422544385   -5.85197261045918
C          20.58436499130551   24.86463249390876   -5.80320997358189
C          19.65589596183410   25.76376966692644   -6.37163565780499
S          17.98066002694021   25.36308666781087   -6.09411373884291
C          17.41705228988647   26.71866582990920   -7.03536629310058
C          18.50254026263280   27.43451518209909   -7.54211533126659
C          19.74876275464432   26.91905669482323   -7.15124950681609
C          21.05393502527518   27.53434333680273   -7.55872846649079
C          21.62973075883429   26.84133403562315   -8.79598218259383
C          18.35187167272475   28.64100191688893   -8.41890135079285
C          18.14969151168878   29.91006736558178   -7.58784873695010
C          16.01140910536470   26.84408316411303   -7.13190832111304
C          15.24032251234251   27.79428027504705   -7.72949348222005
C          13.82818507767124   27.70830768583577   -7.71962306355808
C          13.03158799547227   28.61723228250296   -8.34487975284619
C          11.61903802136041   28.66077015835641   -8.45040407746426
S          10.97181789279863   30.07460820133620   -9.24051887689169
C           9.33561000066186   29.51383303742099   -9.04267781934083
C           9.31609353233696   28.28454049104865   -8.38402749210322
C          10.59218043071849   27.79445994668018   -8.07031662005886
C          10.80996752256883   26.47844679723788   -7.38641999676083
C          10.93879524205436   26.65613970220684   -5.87149776140193
C           8.03696447934085   27.55670946516010   -8.09893617929769
C           7.59958278444254   26.72500324149950   -9.30742331373300
C           8.24203096372204   30.25697084455059   -9.53008654573897
C           8.33649783831180   31.43044853975472  -10.21447706665537
C           7.20557484320600   32.12218782580698  -10.69697461130356
C           7.25412523194999   33.28219234961894  -11.39169284468655
N           6.08847229413679   33.91304596463852  -11.84922407887228
O           6.22727614195958   34.95697985857657  -12.47201085217725
O           5.00362292228002   33.40095021303758  -11.61105263516058
H          20.83099344823593  -15.34477708882063   -4.59089668374961
H          19.30320527968265  -14.99469690963683   -5.22776329932633
H          18.43087684980347  -13.33597511546041   -6.53569905273436
H          18.11000321046798  -11.61044098320615   -6.44073026209095
H          17.33756828816476  -13.65103797824875   -4.29133517339283
H          16.23420165339833  -12.90511805877109   -5.45055482177868
H          17.02088072349639  -11.92291494263012   -4.21158422071990
H          19.53733846366989   -9.11155910390550   -4.03154549039761
H          18.32910887009131   -9.96856960788269   -4.97761365384896
H          20.96544261684623   -8.90765695134441   -6.10785892747065
H          19.38013875753062   -8.15297165942014   -6.32011127555915
H          19.71492761780281   -9.73705269313104   -7.02661481759390
H          23.04310335223739  -10.71577920196068   -2.85032492019427
H          21.42448621553442   -8.34472616771085   -3.90816198392380
H          23.95314409263153   -8.64604000750276   -2.20528709134031
H          22.28430979696359   -6.28570597292483   -3.20737672381976
H          27.19805383247560   -6.93127388733739   -1.95952660937219
H          25.79206676879753   -7.76365582274454   -2.60081403148227
H          26.50575100887911   -7.43197955056893    0.35880562391427
H          26.57882478444387   -8.92680157416048   -0.57533373563295
H          25.01771457003939   -8.17858964928400   -0.21328938547732
H          27.72194901843113   -3.66333407103589   -1.01053046040091
H          27.82573198380967   -5.40617080957912   -0.81287161889399
H          26.51014327828835   -3.52122303965660    1.20023018879250
H          28.10062269696300   -4.27426103946025    1.37149081092649
H          26.64134786935891   -5.26816980898133    1.36541546386690
H          24.06907163504646   -1.72874128424474   -1.22831017346865
H          27.01234185461911   -1.85862911092317   -0.39770580219038
H          24.89638121470259    0.34627824564374   -0.63479177726494
H          27.88424659487379    0.37232957325122    0.04646209914509
H          24.67727660370504    2.53669242408131   -0.29986519384679
H          28.46512952137846    2.80027071243847    1.21234802001224
H          28.77864121080905    2.85923304056209   -0.53129339940549
H          23.00974017456138    4.14519204817514   -0.29042648897071
H          21.67408917290152    6.34531901323160   -0.50815368338948
H          21.22602762559683   11.45737800510508   -0.10344028979798
H          21.31371643585984   11.22714745659522   -1.86245721463083
H          24.96787425544654    9.83840769486820   -0.55804353464841
H          24.91985218322247   12.33646823798234   -1.01314398273176
H          22.09118884828350   13.48614563106372   -1.36517142021963
H          22.00577551313869   15.89770907088164   -2.00687490088492
H          25.71680180011737   14.76935122012834   -0.68362918990543
H          25.75194472235531   14.24945381947404   -2.38054538288247
H          21.22304330529443   17.99102176872005   -2.64157478874623
H          20.95952631484987   20.35774562840185   -3.59161225052661
H          24.60781669103939   24.00615814750000   -6.36306433934459
H          24.60380222748585   24.80178351217986   -4.77910872169217
H          21.27893228975737   22.41029580052315   -4.55951762350882
H          22.49442539152372   25.62965384563448   -6.35328563154366
H          20.10766846674828   24.05777447623965   -5.26097803306453
H          21.75896376062791   27.46972571776651   -6.72907647998877
H          20.91088025097584   28.59371182704408   -7.77339165849797
H          21.76469443316750   25.77802131186788   -8.61225415011481
H          22.59078925608328   27.27580369877426   -9.06244666564338
H          20.95354570543659   26.95360843318457   -9.64071546948194
H          17.50517470051242   28.49348456187408   -9.09030934504915
H          19.23864944803723   28.75632739638545   -9.04294551261446
H          17.27715895231078   29.81397938375748   -6.94597894796457
H          18.01254604903881   30.77112583814605   -8.23822922898271
H          19.01567099964100   30.08975834500622   -6.95433178880558
H          15.47861313740253   26.04062824513653   -6.63361907574177
H          15.67231128251174   28.64458429185225   -8.23135941467136
H          13.40816203788049   26.87180906343096   -7.18532323409582
H          13.52929662203124   29.44400159010396   -8.83975849849091
H          11.70444469384379   26.00199209083587   -7.78909456769718
H           9.97091202387274   25.81499159891944   -7.59859856515240
H          11.75588817723832   27.33182543700017   -5.62994968453249
H          11.12363453999698   25.69773814649917   -5.39134875887881
H          10.02319719980107   27.07700045903823   -5.46169484173481
H           7.25352447790646   28.27435843586766   -7.84987354760216
H           8.16536026332757   26.90412196592665   -7.23514270294436
H           7.43491992943367   27.36487481919212  -10.17118723430936
H           6.67619959667549   26.19509145680171   -9.08585742174664
H           8.36419411112370   25.99600194149602   -9.56693747923643
H           7.25721790043179   29.84624881290423   -9.35127943099673
H           9.31277143840116   31.85397164644379  -10.40969204592092
H           6.22624571034956   31.69948287083687  -10.50596394234754
H           8.16614443609753   33.79942602702572  -11.64451590119511
