202
 SCF done       -328.183626710018          0.000388674873
N          27.93578016548607   -1.49141429569006  -14.15684874601673
C          26.61694267322154   -1.74620273683115  -13.90976052905141
C          25.74027241219186   -0.92577546581769  -13.28459633850709
C          24.44456533584572   -1.46270783084847  -13.07758022484095
S          24.33564984687481   -3.10251755895067  -13.70920287422885
C          26.06814750320030   -3.09021426275211  -14.27450606467946
C          23.37281418929430   -0.84519825340742  -12.48331001763859
C          22.07590964853473   -1.35951165286447  -12.27529766508497
C          21.22616970895651   -0.49097377463157  -11.65409572181760
C          21.80486273889132    0.75383622282093  -11.33784569964261
S          23.47700368567109    0.79640002022682  -11.85460237711992
C          21.21656885031214    1.84142020902443  -10.71127525550680
S          22.13054827839773    3.31440929019811  -10.40314428064108
C          20.70307932255146    4.12885444365712   -9.61136873221964
C          19.56498495561220    3.15083086857074   -9.65201636006487
C          19.90399781291411    1.95321563493360  -10.24988995551128
C          18.30460262118077    3.44756535911538   -9.12771279818191
C          17.96148045204599    4.63665185776389   -8.51870643630461
C          16.70838385442392    4.93445558921514   -7.98451589565397
C          16.38328191873816    6.12759089899738   -7.36084513820184
C          15.08765531073759    6.23696681860494   -6.87601320232952
S          14.15011310165925    4.78351136910411   -7.19684716645401
C          15.55923312749587    3.96978654026091   -8.02257009978323
C          14.52313571517950    7.31842016561350   -6.19985010775425
C          13.23148783032179    7.43332987041914   -5.68574287868618
C          12.98827575650157    8.63278660565552   -5.05336039834125
C          14.07815306077667    9.50169703122980   -5.05297247991053
S          15.44123509939575    8.77407544440029   -5.87582861909999
C          14.16087592172331   10.78181518537702   -4.49868903437371
S          12.79347979470963   11.48139362091217   -3.63951489401778
C          13.71866372433334   13.01151334315706   -3.28322538839620
C          15.08023952365708   12.86775165323988   -3.90439145841612
C          15.24577272815278   11.63878241503812   -4.53344866358331
C          15.99463094281994   13.90818181194911   -3.80955513862576
C          17.26617476811188   13.90727330700006   -4.36499842507278
C          18.17867206200440   14.95023574037256   -4.29311373416340
C          18.03419565787597   16.17785207411359   -3.65419132421207
C          19.09712707626744   17.05360354569122   -3.76761176835847
S          20.41647965527748   16.37569555666897   -4.71503011057673
C          19.50998027086214   14.81739444181200   -4.97952227618243
C          19.19396748636590   18.34669670364843   -3.24219303434107
C          20.23710618602900   19.25584737133813   -3.40240560768185
C          20.02045071424777   20.46693085782968   -2.78055253929463
C          18.80149956653339   20.54158015716790   -2.10589035770909
S          17.92049421131396   19.04273337832124   -2.26722379238377
C          18.27301563971524   21.62313184330122   -1.38935531426456
S          16.74561556490226   21.47685968081000   -0.53288540192472
C          16.82535245330465   23.20382369144050    0.04410595270514
C          18.07924924521723   23.80598286857858   -0.52520222972306
C          18.81585715291440   22.89130514879416   -1.26848822983923
C          18.36424386877819   25.14828519239753   -0.29901236504999
C          19.46316304720554   25.82934226462651   -0.79636553836133
C          19.71178584601160   27.18564038268991   -0.62642101873439
C          20.79517238276928   27.85699353502525   -1.17653600732424
C          20.84666882287835   29.22628428482659   -0.95721970455560
S          19.49559876381056   29.77615987864600    0.02430670433851
C          18.80108914879126   28.09325715542217    0.14843552965450
C          21.79286820898852   30.12672023622949   -1.44850500038501
C          22.92890769014390   29.85148031854513   -2.21923215579639
C          23.63671764491677   30.96945931867752   -2.58529468030032
C          23.08222951520117   32.16856563324659   -2.12155609147933
S          21.64102628128179   31.84638999589630   -1.17731430676474
C          23.52574777136710   33.46173821964933   -2.36279691413681
S          24.96028441920161   33.76624906699251   -3.33280327734773
C          24.74192685092802   35.57087583358055   -3.21254934545553
C          23.52019811338614   35.81315782910518   -2.37619368448394
C          22.92472061084426   34.65254259430687   -1.94621894073341
C          23.09020660549533   37.13977384103467   -2.16402992235787
C          22.07878533319538   37.51293747245627   -1.33040630739821
C          21.50291185357703   38.81859173965954   -1.22956661459102
C          21.35558484281303   39.62910572122946   -2.35006052239170
C          20.37484733631581   40.64814924790003   -2.42812658957777
C          20.23343024183953   41.12588350586386   -3.77043493361583
C          21.08571738660795   40.54859244872826   -4.63647081684495
S          22.09750208977241   39.35163797248349   -3.90791187138565
C          19.58234457696291   40.93354216929758   -1.31122446069158
C          19.90403427065268   40.32056068855995   -0.05326852951883
C          20.85798915714402   39.23689006531446   -0.01112294384702
C          21.18277554155440   38.65140654556856    1.21559272611170
C          20.32012965903012   38.85660653595978    2.31874485585047
C          19.39037356905621   39.94492548366244    2.28402054250775
C          19.33722449632864   40.77623055721718    1.14446641018540
C          18.82759178257106   42.18230830185477    1.31847365187688
C          19.71060462119394   42.94304926024641    2.31397479340623
C          18.55952903790557   40.17312090306933    3.40216641758510
C          18.64157835938028   39.35242042572301    4.49008194706271
C          19.54790221133851   38.25852089488210    4.53540271657698
C          20.37116199002675   38.03159685464123    3.45728804786718
C          19.42860163150549   37.52806283994668    5.75956348203308
C          18.49846938180698   38.04131575170334    6.58541201903691
S          17.68395443667729   39.43897343910869    5.95031372077347
C          22.49286087701141   37.95079051948599    1.46819697356906
C          23.31646676554616   38.71485934572305    2.51096540392838
C          18.33505279588054   41.64131120640837   -1.45125890533889
C          18.07484495868190   42.71169387732861   -2.23284197102972
C          16.77307119268255   43.24574250745694   -2.53228274815458
C          15.65591336858500   42.43717182998778   -2.63552243472325
C          14.45129722708836   42.88752014848972   -3.23227476651164
C          13.41210665016164   41.91456997676969   -3.09363175216843
C          13.83096281806124   40.77026471593931   -2.52199469957927
S          15.50385806150361   40.78319695774665   -2.08355167840869
C          14.40669875873039   44.12612800059276   -3.87970723597579
C          15.55783475592406   44.98778435143240   -3.83093826729441
C          16.63824507870977   44.61797549541661   -2.95413727152786
C          17.52957848232291   45.60221840538843   -2.50141950044161
C          17.65490925063398   46.79757235689711   -3.23796112926332
C          16.81362766985633   46.99543403768330   -4.39100716978704
C          15.70960867529147   46.14476689729234   -4.61267553612388
C          14.75887175314808   46.49772235602760   -5.72461560349510
C          13.85603116066013   47.68866525401373   -5.39126454467007
C          17.07217357115813   48.10144484975081   -5.23588747320395
C          18.05099359472842   48.99612121238195   -4.92124266430916
C          18.84721609821377   48.85156335165536   -3.75259868108318
C          18.64185584341948   47.76289592745644   -2.94252454789804
C          19.80482999613468   49.90836902726779   -3.63474740218766
C          19.73353174476548   50.79118518995260   -4.64748801362856
S          18.51232226449599   50.41794722140979   -5.82758306905182
C          18.19737729943368   45.43753618112304   -1.15642023466475
C          17.13872425761615   45.23270158044277   -0.06844388728410
C          13.15636602930727   44.53389479107044   -4.46771542265484
C          12.31247418413832   43.75924405024913   -5.17872693418639
N          11.07108550111158   44.25894406612084   -5.61402869022563
O          10.39640496792461   43.52530056877673   -6.32263209669599
O          10.73132429571392   45.38229979333752   -5.27167796232139
H          28.23730565851893   -0.53443107418256  -14.07739257335760
H          28.39883836512391   -2.03965678789960  -14.86191881843170
H          25.97314065242088    0.07078822110931  -12.95201313212826
H          26.08474675860020   -3.26676421844384  -15.35251934048859
H          26.60739697292410   -3.89956289812674  -13.77818278056433
H          21.81811656714432   -2.35491096223610  -12.59313986737297
H          20.20212069490955   -0.71718194593980  -11.41732945090033
H          20.48223326257049    5.04352636742482  -10.16435245629805
H          20.98480852661305    4.39236995663154   -8.59032363811590
H          19.20141992758202    1.14465413082599  -10.35741896988318
H          17.55719331829716    2.67063130393160   -9.21260411329046
H          18.71006519723630    5.41211381549004   -8.43289081720272
H          17.08512625280085    6.93659847434164   -7.24229357172896
H          15.25870740566619    3.72418886280432   -9.04280147626290
H          15.77695923347315    3.04418948902221   -7.48665687844019
H          12.51461479633202    6.63762554578593   -5.78818315349366
H          12.05455247733050    8.90497313768653   -4.59331165936789
H          13.77213574366250   13.13288458218894   -2.19949349391230
H          13.16237261545361   13.85306563287658   -3.70006971408395
H          16.15349876996403   11.34165204015087   -5.03014107850310
H          15.67489606742149   14.78759037134721   -3.26763635639332
H          17.58003455687651   13.02992667852423   -4.91397077726216
H          17.15475229852952   16.46131784382581   -3.10186181405560
H          20.10607826089646   14.00125481486632   -4.56643334714071
H          19.40450941513097   14.66120274181304   -6.05474923580149
H          21.11675633987841   19.00865594051098   -3.97068258511167
H          20.71970139001695   21.28294635708652   -2.80190196000976
H          16.83107024708478   23.19887073000771    1.13611687930015
H          15.92679698200403   23.72179361280212   -0.29603907600835
H          19.74575877494197   23.14331881446757   -1.74551766316450
H          17.65061872637980   25.69915344933784    0.29978012649012
H          20.18553426270745   25.28312014244044   -1.38567546779337
H          21.54296767149354   27.35123476596634   -1.76254149640015
H          17.78957188753749   28.11358471146269   -0.26067113419788
H          18.74948737198713   27.82384794320228    1.20495145006165
H          23.20690621355347   28.84995845486859   -2.49343443074720
H          24.53183531631713   30.96110789748639   -3.18234289584562
H          24.63405105648986   35.97413204542403   -4.22145751092495
H          25.64060516529882   35.99816907646618   -2.76290834684878
H          22.02995231445957   34.62165296068746   -1.34819149015904
H          23.65531136045039   37.90351091797107   -2.68052904801274
H          21.61474466863866   36.75879582197989   -0.70936687024532
H          19.51237777780255   41.85714762055296   -4.07902997075927
H          21.19461057843631   40.74422979920104   -5.68548624572389
H          17.79135363810513   42.19177100040477    1.66328830068538
H          18.86538493448626   42.71533092435252    0.37220195813979
H          19.69968962127603   42.47801081293546    3.29585569847909
H          19.36238164116797   43.96894509315074    2.41258937813144
H          20.73865554896591   42.96148494210766    1.95791854417643
H          17.82062817237314   40.95711719876259    3.38207091038417
H          21.02176341977884   37.17156813614352    3.47396741706419
H          20.02627924809376   36.66415455401815    5.99016627034015
H          18.21471458948239   37.69207600251029    7.55946109008254
H          23.08100721070828   37.91063271875667    0.55312691135224
H          22.33525720318972   36.92349716582073    1.80527270912427
H          23.49703597532408   39.73114206137339    2.16717703942996
H          24.27666182963677   38.22409453108408    2.65421208245168
H          22.80627935775605   38.76636665735895    3.46887473887190
H          17.53773652211926   41.24823452546670   -0.83326229417896
H          18.89426862371025   43.23226137996155   -2.71037838845666
H          12.39235114667292   42.07839556832450   -3.38684282186764
H          13.25338763767059   39.89234369908073   -2.30692953686907
H          14.14661479964677   45.63186937709292   -5.97353265721810
H          15.33599049846292   46.72983774916845   -6.62313356085464
H          14.44071777020412   48.59747204386357   -5.27295222799277
H          13.31346343647022   47.52710088717032   -4.46299291091287
H          13.13016069641285   47.84057969459703   -6.18623979822677
H          16.51285846103727   48.24821736133194   -6.14338317053496
H          19.29682783506305   47.64205801034166   -2.09506611475020
H          20.50232613573789   49.98345719055872   -2.81952882618434
H          20.32930532580083   51.67043078067122   -4.80051484509136
H          18.75721370974151   46.33354670111762   -0.90111351660510
H          18.89925216181457   44.60607808480770   -1.13450351688765
H          16.41937902844003   46.04864397880998   -0.08696227197282
H          17.61104281048274   45.21151171921999    0.91091166427410
H          16.60142924166020   44.29906151791678   -0.21311112347504
H          12.81478755891672   45.54125898650399   -4.26230577059482
H          12.52917764597588   42.76366850149321   -5.53177737875850
