234
 SCF done       -335.007597562367          0.000216229216
N          18.68722226384418  -18.07119735083377   -9.64316509440338
N          17.52454573201034  -17.84333642207971   -8.90669727399277
C          17.01888506547213  -18.78079310840342   -8.02579393651757
C          17.59892760633941  -19.96657144332927   -7.71021688655852
S          16.70231811207877  -20.82263875396894   -6.50655865391312
C          15.53512975909730  -19.54960109950782   -6.43325108469451
H          14.74995875835627  -19.63881528577572   -5.71483634182227
C          15.80027122346091  -18.53551837791052   -7.29940259383635
N          15.08108109025492  -17.35706481495547   -7.49180618037452
C          15.62703475949310  -16.44588951899076   -8.39805773963694
C          16.79739713935424  -16.68713173938828   -9.07463383374441
C          17.08602188006861  -15.58075540196069   -9.95395242844332
C          16.03621908105884  -14.64349752322046   -9.78043722112563
C          15.92344458356045  -13.43339885117733  -10.48016942388215
C          16.98345079435390  -13.16724537560382  -11.41485978121954
C          17.98631099204173  -14.10176847415609  -11.57142739650680
C          18.06275515435561  -15.31441161673610  -10.87292556391500
C          17.02312627191348  -11.90555869080580  -12.24146953029817
C          18.12357622185952  -11.81067565033847  -13.29499212570693
C          14.74925181898954  -12.67297322406934  -10.17247625077364
C          14.37008210949947  -11.33301980581909  -10.74672966254301
C          13.47294301725073  -11.50293064943680  -11.97656795371169
C          13.81824695848954  -13.21774229166613   -9.31177332811138
C          13.94121135562190  -14.45020341676642   -8.66058475591486
C          15.09355047533202  -15.17064511983444   -8.85230549668971
C          13.94027888380764  -17.02368089577424   -6.78934381543452
C          12.97794928866375  -17.85760100200021   -6.36897542146746
C          11.78809546343151  -17.47204518900492   -5.63521432953614
C          11.01248122380088  -18.47614958661566   -5.05338298239844
C           9.82534458965583  -18.19781763816968   -4.40565786923584
C           9.01504694827900  -19.33620641428387   -3.84625941801354
C           8.16252345911158  -19.98578387236449   -4.93782609722774
C           9.37383428748995  -16.87426635639189   -4.31317527052504
C          10.15054455719895  -15.84854741389060   -4.86166704461209
C          11.33458442213361  -16.15977841688814   -5.51141274539414
C           9.69996439824365  -14.41013002889910   -4.81680507376890
C          10.71685184815253  -13.49931229587300   -4.12817671192305
C           8.02740267715081  -16.65215371510369   -3.75720022432897
C           7.67248463712137  -16.12420181537275   -2.57643448722576
C           6.21818564730122  -16.09211376234390   -2.19326644177712
C           8.62983452038203  -15.56479543196998   -1.64322279813980
C           8.33323173140313  -15.23337010270207   -0.37837888449254
C           9.18553399959089  -14.54639803604987    0.57526993576094
C          10.16101394039766  -13.63076103318271    0.19211209554050
C          10.85454676499890  -12.86350999340202    1.11718600525025
C          11.80794228146753  -11.81544543696862    0.59839064742871
C          12.93362251687356  -12.40063125248811   -0.25505886464303
C          10.58118533753432  -13.01744913196842    2.48336308225979
C           9.63602548582570  -13.97456750398773    2.88550396666682
C           8.95097336085754  -14.71114074419029    1.94025025557669
C           9.31775098167011  -14.18805952553963    4.34192440672072
C           8.06094221474581  -13.41657225548670    4.74823539966865
C          11.14635960488984  -12.14646827617282    3.52679023447674
C          12.43053393491323  -12.02553027281509    3.90398693285319
C          12.80421936969410  -11.07408349120584    5.00590292157058
C          13.47270131362419  -12.79010574288836    3.26456918166421
C          14.78430380779232  -12.55799151894610    3.43509663423164
N          15.82297636548730  -13.15945875957445    2.76464108883425
C          15.66789341682427  -14.09672738374728    1.74096799798811
C          14.81607867814976  -15.15730577417329    1.69725190514367
S          14.98399899326996  -16.06163069237190    0.23954934398155
C          16.24928234372401  -15.02661561359524   -0.30574545410086
H          16.73343910261313  -15.21485900353763   -1.24141206142727
C          16.50393830128179  -14.02360563985440    0.57724928226666
N          17.50146708356098  -13.05305440423332    0.47101765154883
C          17.91544153096824  -12.54357521808269    1.69997671517320
C          17.10304043714641  -12.60051024932961    2.80247206391359
C          17.79924657743715  -12.02990606991665    3.93669227241117
C          19.06568037360138  -11.60521803903410    3.45711801570872
C          20.06708120815907  -11.00527351487337    4.23511222858928
C          19.73336959528425  -10.84311271900754    5.61880683480713
C          18.50407626798647  -11.28408498299573    6.07051636929874
C          17.52423149205264  -11.88071230280008    5.27140032166870
C          20.59739516327414  -10.19491819610564    6.66806766111451
C          20.29778671741171   -8.69523907055543    6.75958739209219
C          21.27502935395659  -10.68273713892289    3.52605048070842
C          22.43851647326629   -9.98372159489848    4.18205763158957
C          23.53403621717172   -9.47128895322214    3.25013669797305
C          21.37724354787393  -11.03870484918132    2.19842906463861
C          20.36797518948845  -11.66692592325305    1.45683427926076
C          19.17611566788254  -11.93012755089666    2.07768156431228
C          17.90453869739925  -12.53166221379893   -0.73678666228006
C          17.17899363664095  -12.58540542759748   -1.86517010502209
C          17.59469459891324  -12.11050468974545   -3.16423822202580
C          18.92664445197853  -11.85926569426899   -3.48741603707775
C          19.29866493633442  -11.46829524713193   -4.76090035311182
C          20.74318134480161  -11.15400557752768   -5.04305511641810
C          20.98947391574596   -9.64760961586889   -4.94929838717519
C          18.32101736965154  -11.32100473930475   -5.74893162673500
C          16.97117246204461  -11.53828543121532   -5.43911208668716
C          16.63047005888982  -11.92997748451455   -4.15964399161469
C          15.94896376203799  -11.35626069329488   -6.53464457734500
C          14.49601205959245  -11.55804699134577   -6.12484839347402
C          18.68403718592156  -10.95109060467235   -7.12705470166137
C          19.24297711963080  -11.78666067865318   -8.01489583402560
C          19.55270415719410  -11.32994223969057   -9.41074335986146
C          19.54670942600833  -13.15445854960215   -7.64905949928293
C          19.95789072838001  -14.08433183648999   -8.52051183682895
N          20.25307875752295  -15.40225031378375   -8.22215585975458
C          21.14521816275929  -16.09851268214567   -9.03276598990535
C          21.50599765040647  -15.80849223016145  -10.31613483407740
S          22.57333738119455  -16.98429616665409  -10.98019538024634
C          22.56419289099272  -17.88161617167719   -9.51721204926461
H          23.11328972603051  -18.79783063116690   -9.46319987997247
C          21.79606794842481  -17.29025250470942   -8.56187619903385
N          21.58492562629303  -17.72635479459912   -7.24791401881689
C          20.36447323713898  -17.28063704088108   -6.71693493274316
C          19.74713450119220  -16.13145645140915   -7.15634622351780
C          18.50570327974462  -15.97621728168086   -6.41051859916660
C          18.42808657609792  -17.07887941037154   -5.51926984727008
C          17.36324313913621  -17.34653507567988   -4.64170742496138
C          16.33149913227080  -16.34932300125807   -4.61802866228795
C          16.41313770688034  -15.29747435726270   -5.50734330802108
C          17.44670358630326  -15.10278117085758   -6.43081583452192
C          15.16717465127388  -16.42013683145979   -3.66587549778396
C          14.36947294639340  -15.13398656621554   -3.47578669807654
C          17.46011184298066  -18.58674426577657   -3.93641410724816
C          16.44443316930416  -19.15582613186996   -2.98165399168134
C          16.82744624807511  -18.85002953273805   -1.53081929172685
C          18.57093108723106  -19.38773666047265   -4.13297017685234
C          19.62932015545478  -19.08963382575440   -4.99157427309833
C          19.56033163683304  -17.91343692161715   -5.69824385761031
C          22.47932529211745  -18.37397469774426   -6.48638179633735
C          23.74795852462055  -18.75226453459048   -6.78630363059583
N          24.50505595505915  -19.42024123624594   -5.82646031695218
O          25.67319113023256  -19.66364898807633   -6.10625315679890
O          23.97985631324545  -19.73904752007638   -4.76424024936402
H          18.54181984056108  -18.82504147964924  -10.31619071988785
H          19.43910399655572  -18.34922194920721   -9.01380612875247
H          18.49889699188234  -20.40101129041132   -8.09547839872654
H          18.76801587014321  -13.90971781472477  -12.28911068082225
H          18.86078474589520  -16.01247532667316  -11.06895223263660
H          17.13842150381765  -11.05272902605388  -11.56529353699891
H          16.06753956933046  -11.79720106431928  -12.75527554825896
H          19.11347300219172  -11.80178032727690  -12.84401130514214
H          18.00327879138060  -10.88006167593439  -13.84622716018512
H          18.06123674081206  -12.63168562524946  -14.00548531647044
H          15.23845736965393  -10.73092234263380  -10.99391365454214
H          13.80569735783387  -10.78276245333177   -9.98929712137212
H          13.22587879150047  -10.53349888429392  -12.40354186163741
H          12.54922980680331  -12.00506808963126  -11.69809071378097
H          13.95948593687010  -12.10619110894926  -12.73995053552256
H          12.91457677729616  -12.65262498485486   -9.12574570748405
H          13.11527180414228  -14.79444450912476   -8.05898498102972
H          13.86539390891754  -15.96583744974130   -6.59788305351648
H          13.04294985900888  -18.91014083720364   -6.60039865752750
H          11.34294078560518  -19.50391872274551   -5.12296396315937
H           8.36979436738117  -18.97661493295499   -3.04302540673345
H           9.68919760778839  -20.08828468726451   -3.42972910253895
H           7.47460655390216  -19.26242689886770   -5.36940241925448
H           7.58362520148427  -20.81079650777306   -4.52865581502059
H           8.79584252028177  -20.36748879627598   -5.73563645596632
H          11.88996532775415  -15.35721874867110   -5.97267062181967
H           8.74537527051478  -14.34411132744292   -4.29396995757182
H           9.54403513869477  -14.05480742867496   -5.84020761078816
H          10.97689890840327  -13.89198169852354   -3.14788671865279
H          10.30359942703386  -12.50080440351110   -4.00252687844456
H          11.63172289560379  -13.41613149048874   -4.70984977104856
H           7.23847611719169  -17.04579467055882   -4.39044058926830
H           5.59306901542791  -16.40004468884793   -3.02807447902519
H           5.92341726207129  -15.08943439996892   -1.88778705397312
H           6.02961749767799  -16.76968678015508   -1.36075349207855
H           9.63241133678181  -15.42383223157308   -2.02100549865437
H           7.35363726733898  -15.47629896236133    0.01288398014800
H          10.33382322209789  -13.46372522541583   -0.86054415530048
H          12.24000819183288  -11.26239122623569    1.43185625194502
H          11.23989503880285  -11.10699034121012   -0.01308161688502
H          13.50121768870820  -13.13492578577930    0.30996852030617
H          13.61372912257164  -11.61105131117040   -0.56906932114876
H          12.54177776259069  -12.88645385511695   -1.14539330309158
H           8.21026399862160  -15.42927751784614    2.26594901919854
H          10.15982246968143  -13.86951846033533    4.95878103168538
H           9.15072814369939  -15.25318356116817    4.52034218255798
H           7.83813547090967  -13.57781249741563    5.80080371321003
H           7.20809987869026  -13.74522387425213    4.15845543629903
H           8.19427165850595  -12.34994073078136    4.58267016706201
H          10.40189564961364  -11.56806263618129    4.06148482944004
H          11.91468581127113  -10.63657829596228    5.45241471627042
H          13.42504572804942  -10.26516928683709    4.62103631302911
H          13.36393652434043  -11.59100974279552    5.78426584711391
H          13.13096562938152  -13.53748866204306    2.56757436227702
H          15.12425794142546  -11.77839061760436    4.09816141960603
H          14.10342791470835  -15.47751371023066    2.42825459733338
H          18.28202524048457  -11.16732063018243    7.12260026749331
H          16.60407880046958  -12.22176094191550    5.72201100942838
H          21.65502280432973  -10.35834920712896    6.48710424474535
H          20.36482153494245  -10.64691369322026    7.63541195178449
H          20.44464944549818   -8.20392734114834    5.80010798073774
H          20.94453571296997   -8.22323508515849    7.49574610672730
H          19.26291200526655   -8.53991052424682    7.05634015014774
H          22.90128366825443  -10.67485072702031    4.89403389207165
H          22.05981143721806   -9.12798441419674    4.74076399864271
H          23.12143142205167   -8.81845262144492    2.48421381198444
H          24.07139315746185  -10.28674785941648    2.77222558256903
H          24.25295494318987   -8.89782745907526    3.83210296073172
H          22.29407271737731  -10.82925210803722    1.67250568736706
H          20.57150602115377  -11.92950426810950    0.42976685080297
H          18.84174426426197  -12.00202382197077   -0.69797330813092
H          16.18308974308964  -13.00393885595402   -1.81820666480856
H          19.69366564262925  -11.99367254535638   -2.73931374511941
H          21.02277599906193  -11.49973333071065   -6.03880933695767
H          21.37482768367904  -11.66735241059440   -4.31508051777489
H          20.39377487127954   -9.12240895173251   -5.69197285904335
H          22.03897452628931   -9.42108066233350   -5.12381263030277
H          20.71251608580327   -9.27864318589156   -3.96393772616992
H          15.59641144054417  -12.09894703802171   -3.90259055287398
H          16.18686535738155  -12.04510050431777   -7.35260570990076
H          16.05872015771282  -10.34492128522913   -6.93886837714362
H          14.32226894477475  -12.57587646941058   -5.78393438288529
H          13.84957211995600  -11.37660693407287   -6.98060870049498
H          14.21436226133680  -10.86932288233100   -5.33137656644327
H          18.43045196425352   -9.94214969993657   -7.43159809574151
H          19.28630075789660  -10.28348765423765   -9.53778785795522
H          18.99608039215513  -11.92361962373766  -10.13306406526877
H          20.61608979278862  -11.44236952414685   -9.62063519921946
H          19.41092746816468  -13.41077489962805   -6.60925194342331
H          20.13968620338268  -13.82962382685326   -9.55070060156149
H          21.21808307030731  -14.98423797358463  -10.93358990145638
H          15.63141198472706  -14.55678933836606   -5.51107074879831
H          17.38906321621139  -14.27067306465433   -7.11347706599778
H          15.53058054438967  -16.72693278295224   -2.68617011153155
H          14.47368342317090  -17.18916156953882   -4.02258382569774
H          15.02720338493896  -14.30083789115192   -3.24464114699624
H          13.67850490558478  -15.26896305943759   -2.64621525572577
H          13.78144212595491  -14.89147925095020   -4.35614635867165
H          16.43299217114361  -20.24133968565307   -3.10917736135869
H          15.44061730112806  -18.79917914562531   -3.18726729963295
H          16.07482306574801  -19.24087882886901   -0.85056333176137
H          16.91689280766934  -17.77961758446251   -1.36341570273954
H          17.78525018102296  -19.30593181818528   -1.29164401479473
H          18.61508850580715  -20.32764767553563   -3.60163436621377
H          20.43499822686910  -19.79994840879380   -5.09701289454129
H          22.14223924085524  -18.59398559401091   -5.48166810082186
H          24.28161827391583  -18.53791387730780   -7.69438416997921
