193
 SCF done       -305.327674940399          0.000562400589
C         -26.38364074823825  -44.89957155265049  -10.23238228453119
N         -26.63163723516569  -43.51032639709486  -10.54145732826536
C         -27.20724106817999  -43.25134455999734  -11.83340227588887
C         -26.32417876254814  -42.56199841245360   -9.64467282080849
C         -25.75765251581915  -42.85790192224346   -8.35378344045288
C         -25.54752363940898  -41.70865715026056   -7.66149689907569
C         -25.96551146994815  -40.59289266585123   -8.46835002712739
C         -26.46051599992609  -41.14427177595338   -9.72469554863681
S         -27.05048870315350  -40.17459548847224  -10.95758312809692
C         -25.92194870036109  -39.25866141882278   -8.17581975484689
C         -25.43568802115426  -38.71698798322753   -6.97363165186388
C         -25.35883569737028  -37.38192742277793   -6.68821065863281
C         -25.73135385275617  -36.24168399307018   -7.48510950612851
C         -25.44827243524841  -35.09874432064858   -6.81261819127089
C         -24.87159136533458  -35.40870293779348   -5.52791071669716
C         -24.82384648649159  -36.85164459292589   -5.43973827880574
S         -24.26310350871077  -37.74322120405466   -4.17450685022581
C         -24.41554713716227  -34.56378382284387   -4.54688794522566
C         -24.41214841448266  -33.16565292836693   -4.61778840296281
C         -23.91072091181397  -32.33977480074035   -3.64349526424328
C         -23.31643745439463  -32.65849264861728   -2.38769266752220
C         -22.93089087305212  -31.50218341759977   -1.76178090469899
C         -23.25102970790488  -30.37204071504331   -2.56725031312141
C         -23.87581469317557  -30.87452813251003   -3.75083887944358
S         -24.45406416526119  -29.99656781360333   -5.02709530484811
C         -23.01439669918598  -29.00814205568605   -2.31678980391319
C         -22.39366916389544  -28.51717812037474   -1.20778875536757
C         -22.11614846750822  -27.14449216145389   -0.91596779213460
C         -21.44592400082855  -26.84107147707087    0.28531965159662
C         -21.13323086579403  -25.54929592760877    0.64054029627361
C         -21.49210866080972  -24.51399570947109   -0.21550003674979
C         -21.29722383509629  -23.08779081079008   -0.11060292767788
C         -20.68736402812184  -22.35065633095824    0.89180830960341
C         -20.64581168614806  -20.97670902417001    0.71666565412675
N         -20.12365544495828  -20.01398454682887    1.54592211106325
C         -19.42141482893674  -20.26161598174880    2.77559444763993
C         -17.92776409462137  -20.48282365432871    2.53820987050940
C         -20.28349258758011  -18.78567931928590    0.95060707265614
C         -19.89341534342463  -17.53608796173700    1.40872307669785
C         -20.19864538153173  -16.45520308071659    0.60111914362560
C         -20.86933094048829  -16.60818700265030   -0.63348958137409
C         -21.25385954772513  -17.84597950315522   -1.08828128369391
C         -20.95844446080663  -18.94980700326496   -0.28778313075736
C         -21.19252969823438  -20.35310334141649   -0.43773046386773
C         -21.80303101633712  -21.11362887025411   -1.43515743542548
C         -21.85038713343269  -22.47495663027595   -1.25986885614036
C         -22.43988302929649  -23.52116676277992   -2.16394196077168
C         -22.16460275286106  -24.79652583549097   -1.42035736937662
C         -22.47504776357054  -26.08475789495442   -1.77167593153921
C         -21.05542404436597  -15.26562332697405   -1.28480937341089
C         -20.42533744168135  -14.32711439299527   -0.29599092981098
C         -19.93084052734194  -15.04570333607890    0.80372823349624
C         -19.31075435050579  -14.38097573645960    1.85050849596147
C         -19.19686228876906  -13.00578312436190    1.79085424227378
C         -19.68341926805376  -12.28047648001141    0.70136684206552
C         -20.29981658052758  -12.95756798854590   -0.35404325050027
C         -19.53322961019349  -10.81957402431405    0.67548404972539
C         -19.76223466667646  -10.07391027322369    1.83331476833505
C         -19.59059306922888   -8.70320783463537    1.85421406567821
C         -19.17294122481206   -8.06402563098686    0.69705255252483
C         -18.86382165239583   -6.67138859100902    0.43876589535864
C         -18.90185265191991   -5.58448843078711    1.29397563315571
C         -18.50007668673976   -4.36436242071356    0.76992466031875
N         -18.39860886010844   -3.14395960496881    1.39420687269706
C         -18.77725006322342   -2.86524039524583    2.75238612344702
C         -20.24967272782792   -2.46923027041417    2.85979733260322
C         -17.94602213115902   -2.21879396792387    0.48409246682948
C         -17.68386413687546   -0.86850778641294    0.66569032614066
C         -17.18788850165703   -0.17884566622853   -0.42641988666333
C         -16.97311920101642   -0.80804090258965   -1.67304361007106
C         -17.24298477800124   -2.14261837288614   -1.85623021880400
C         -17.73042875345137   -2.85901988679170   -0.76427667197009
C         -18.08520958485634   -4.23370075288324   -0.58110737960795
C         -18.06700992301323   -5.33939355312055   -1.43007171797600
C         -18.45351431144122   -6.54984361401082   -0.90762858624350
C         -18.50314787121230   -7.89239519688646   -1.58281471138378
C         -18.95493218515422   -8.80200439575810   -0.47691312899135
C         -19.13776870150401  -10.16595116422402   -0.49438224687438
C         -16.42339547128718    0.18297890478434   -2.66095099383873
C         -16.31158915063627    1.43685494127427   -1.84295032700706
C         -16.78030238060916    1.20796875259438   -0.53969565281911
C         -16.77194158455726    2.23406928092884    0.39255909821373
C         -16.28574407718491    3.47218438561431    0.01803360848406
C         -15.80232306978056    3.70614674456073   -1.27054680451978
C         -15.82440271087253    2.67042506718585   -2.20866752870617
C         -15.24909655800115    5.02019712590930   -1.62249224374002
C         -15.86032298448974    6.19236857018312   -1.17351346293637
C         -15.33513167539491    7.43733687479775   -1.46379487900677
C         -14.17192944814916    7.51539106456070   -2.21455724691358
C         -13.38675055990258    8.65724977068031   -2.64278756587183
C         -13.58461553181848   10.00650457392213   -2.40878162104910
C         -12.64005380349498   10.87634591761780   -2.93557998009498
N         -12.58596727793246   12.24880901780744   -2.86109453600217
C         -13.50194442996507   13.08128977554390   -2.12937721952436
C         -13.07163125109212   13.24965884987840   -0.67245014184134
C         -11.44938347349749   12.68094245023456   -3.49931834954147
C         -10.96510751144854   13.97210280279525   -3.65094813397088
C          -9.78358495788763   14.11400458082654   -4.35881651468401
C          -9.09890013774589   13.00442395308795   -4.90288622439823
C          -9.57606635865395   11.72480894527478   -4.74989474169754
C         -10.76232651700632   11.55997194503227   -4.03846963022762
C         -11.52532139441897   10.40537084244477   -3.67595574170378
C         -11.34520838058491    9.04175758130603   -3.90398079870673
C         -12.27967358985235    8.18164275760104   -3.38199856835762
C         -12.32019922054050    6.68168278772558   -3.46223998304040
C         -13.55639557967777    6.34338109154007   -2.68111832178303
C         -14.08659782085100    5.10712766432176   -2.39322743246169
C          -7.85495491318242   13.46209822303440   -5.61105296831216
C          -7.89211955718921   14.94707483545450   -5.41358769082633
C          -9.03217199326106   15.31282513469039   -4.67687287036382
C          -9.27552923477309   16.64382379352730   -4.37201165117348
C          -8.37885142421965   17.60503742166149   -4.80321345832692
C          -7.25105002147381   17.23427319341533   -5.52690443082715
C          -6.99808831269947   15.90075775437740   -5.84406645599736
C          -6.29690857512786   18.28102811945056   -6.01682120845774
F          -6.36674398315263   19.43130139114055   -5.32918582055750
F          -5.01317997014133   17.88344327045962   -5.95742370596147
F          -6.51784422616740   18.60837463206830   -7.30920710350053
H         -26.95877980629292  -45.21596641886342   -9.35935653804735
H         -25.32381341491066  -45.07312575187160  -10.03389542747073
H         -26.68061670501371  -45.50960927062983  -11.08149040829757
H         -28.16804297114104  -43.76388821005640  -11.92206350775840
H         -26.54196039417908  -43.61823003964217  -12.61928413985853
H         -27.36051567896237  -42.18331268521679  -11.96801943716391
H         -25.53635386806511  -43.84509691725211   -7.99442391658195
H         -25.13595413950702  -41.63486415455566   -6.67306668664701
H         -26.28510815123364  -38.57945830547114   -8.93662914720424
H         -25.08232513823881  -39.39569105083189   -6.20774707524084
H         -26.16633771589368  -36.30387208738571   -8.46544493276571
H         -25.62165221641668  -34.10039415664417   -7.17042866249571
H         -24.01465636972559  -35.03320640623893   -3.65734237498037
H         -24.81492214320064  -32.68744235861588   -5.50163670007608
H         -23.19280107539126  -33.65165898426420   -1.99775519022467
H         -22.45467631053369  -31.45144112764240   -0.79908926147173
H         -23.35953606557205  -28.33607864973559   -3.09126052428936
H         -22.06073924786930  -29.22282549309109   -0.45732320411596
H         -21.17112850452819  -27.65491570269602    0.94172863742054
H         -20.61745474284555  -25.34451734642940    1.56714748466819
H         -20.26658952169947  -22.83376657302117    1.76010015606734
H         -19.85987265441994  -21.14147545498227    3.25435059275806
H         -19.57314352131022  -19.40632991766615    3.43961934831995
H         -17.77421560721965  -21.33556656298089    1.88094960682238
H         -17.42005318697124  -20.67001140655838    3.48067575789949
H         -17.48800435627157  -19.60502848910131    2.07037767475418
H         -19.37469921519529  -17.40263287812308    2.34548600944305
H         -21.76609742617499  -17.97012434322222   -2.03080099012401
H         -22.22045234722783  -20.64022803563482   -2.31126448671883
H         -21.96752348063304  -23.51974082927211   -3.14939447540435
H         -23.51129341793030  -23.36799385330370   -2.31567829732301
H         -22.99031766001037  -26.28541269225267   -2.69826307104880
H         -22.11207754957103  -15.03439156602216   -1.44214570843922
H         -20.56172263978907  -15.21662690000078   -2.25888168809705
H         -18.92132488262740  -14.92529717888391    2.69830475711416
H         -18.70074875821576  -12.47685869667379    2.59168354363064
H         -20.69309004424799  -12.40196623489235   -1.19360326466727
H         -20.09563651433280  -10.58287796980462    2.72616926229371
H         -19.77334980619179   -8.14381809999164    2.75999722976526
H         -19.22211061619637   -5.69320159413061    2.31883364391059
H         -18.14363701016632   -2.05823708946790    3.13070285075758
H         -18.58401689958205   -3.75621487939888    3.35619229087072
H         -20.44286166393146   -1.57799871964221    2.26728758465243
H         -20.51053974510267   -2.26612079398675    3.89511714943879
H         -20.88228514432032   -3.27240361500539    2.48902816646968
H         -17.84714233929251   -0.37262132399109    1.61025400601140
H         -17.07809454019234   -2.62924607134831   -2.80614608866385
H         -17.75002076559796   -5.24053396084265   -2.45773311359853
H         -17.52598192195087   -8.18662830934169   -1.97409552639648
H         -19.20588576769833   -7.89806952857099   -2.42036507521240
H         -18.94662271295971  -10.73703784594353   -1.39193382237866
H         -17.09473771830698    0.31912751009458   -3.51308590528854
H         -15.45396406929703   -0.13149579977636   -3.05566742193572
H         -17.12914464785392    2.06999953593736    1.39867399776661
H         -16.24914888989852    4.27110115393829    0.74443261751253
H         -15.47417893518526    2.84756566470312   -3.21571634019011
H         -16.77334767337962    6.12069290782338   -0.60041543419200
H         -15.82445692258090    8.33208508016768   -1.10765882110166
H         -14.43107734630695   10.35424147309029   -1.83689462268637
H         -14.49548371483361   12.62741050810386   -2.17687488660802
H         -13.55328997113886   14.05651047124474   -2.62115308056238
H         -13.02769696081547   12.28114010752966   -0.17978027690334
H         -13.77849192974133   13.88176660742725   -0.14166020653473
H         -12.08560293918761   13.70572862955238   -0.62184170278835
H         -11.47343545808548   14.82943989310619   -3.23773262061701
H          -9.05527022923174   10.87291627154377   -5.16036770659296
H         -10.49600219570312    8.68367078653720   -4.46666162114078
H         -11.42808869642696    6.22749003689481   -3.02359172246003
H         -12.38944059814446    6.33366866400840   -4.49621161222830
H         -13.59617191315679    4.20584692807589   -2.73233264208765
H          -7.87000962382100   13.19764177388037   -6.67118937745993
H          -6.95380924833298   13.02152415736506   -5.17770565190307
H         -10.14876871086854   16.93250033192420   -3.80787551128721
H          -8.54618977289804   18.64685422061984   -4.57653058651720
H          -6.11696554731170   15.63481903375399   -6.40863868245773
