283
 SCF done       -426.607588096844          0.000934249858
C           2.10123448702754  -28.08816100345876   35.98933647775426
O           2.09148616877427  -26.88992717029510   35.26575148191774
C           0.86397755962516  -26.39226703412216   34.88009786081796
C           0.79837755692479  -25.14917197174073   34.19050683476641
C          -0.41198623088797  -26.85816026971525   35.02062763893349
N          -1.01814216669001  -27.95663254997660   35.56866322149445
C          -2.35698265743315  -28.08370412024577   35.51745249782272
C          -3.12776036502517  -27.11789257359324   34.91308944104998
N          -2.61407993643151  -26.01361702564915   34.35129843981309
C          -1.32481561841348  -25.85759337579201   34.38574101606962
C          -0.50844029766607  -24.80385542469784   33.88334658738572
C          -1.00570642312581  -23.63550322071389   33.20394222627991
C          -2.37326921881110  -23.40755318945023   32.88505999299798
C          -0.31903994990013  -22.53168809669143   32.73669600288355
N           0.97814181610770  -22.15372767897072   32.74845368352337
C           1.34821909227503  -20.98258540420591   32.19574392634895
C           0.39835393325704  -20.16792619282051   31.61823141132960
N          -0.90437725893259  -20.46575681671961   31.57526733634469
C          -1.28547593972425  -21.59849302403021   32.10679876525378
C          -2.56947968175806  -22.19769557254385   32.23096981206489
C          -3.83275718329076  -21.65695834521967   31.76599025417800
C          -5.02976579165191  -22.32711714931219   32.04693601415137
C          -6.23099356134513  -21.81362668215411   31.59163815549124
C          -6.24796163368942  -20.60155932504892   30.85257964157704
C          -5.06897765096845  -19.93514550194605   30.58026831769264
C          -3.87255646294875  -20.46460878287046   31.03333327534319
C          -7.62598700430737  -20.30274352128943   30.52720270071891
C          -8.42553679159695  -21.37330151016758   31.09802646109231
C          -7.59324152213198  -22.28527647470473   31.72796153146186
C          -8.04129022600468  -23.50754020739276   32.45009770218837
C          -7.38582225385768  -24.78532358259583   31.90214604657064
N          -8.05818424407955  -25.95403483515482   32.44902054560324
C          -7.79143161354468  -23.37888901271342   33.97550982027158
N          -8.56659173062283  -22.34762284952670   34.62890750666362
C          -9.83404947114123  -21.34823363662259   30.94615215500881
C         -10.39210544367232  -20.31398903682459   30.26298993140052
C          -9.59349948837241  -19.24921203607988   29.68316883778264
C          -8.18373726797853  -19.27251828382906   29.83915460844699
C         -10.42386051799752  -18.35019565137311   29.03534437475198
C          -9.98015155183688  -17.12061695242985   28.32196579943201
C         -10.44688928052589  -17.10649808030898   26.85624831449319
N          -9.68743005283976  -16.12523566678158   26.09072855010625
C         -10.45042297379258  -15.85003147179527   29.08125931222599
N          -9.86319077990867  -14.61558377584836   28.61538249434345
C         -11.78742766381288  -18.80633993537588   29.19854613101784
C         -11.77173200095157  -20.01229860466965   29.94842225167453
C         -12.94852161595727  -20.66490560570574   30.25863604107451
C         -14.15002688292505  -20.12090609805193   29.83448159863388
C         -14.18696375478668  -18.93516085628938   29.09958225104159
C         -12.99792784815618  -18.27982872167651   28.77890730458857
C         -15.47080257773060  -18.35661973713015   28.67692580882568
C         -15.61504756609265  -17.83733961766088   27.39013479085718
C         -16.81613425778203  -17.25590257521982   27.01859522571640
C         -17.87900179361029  -17.17387589609402   27.95147208143709
C         -17.74338602323341  -17.70371008779412   29.21946939160402
C         -16.54174742550714  -18.29769611562889   29.57067199199270
C         -18.95951852187488  -16.45841333588405   27.30756100304556
C         -18.51605872555832  -16.15024255630280   25.95457097864413
C         -17.23077490297356  -16.62983200251283   25.77627451471696
C         -16.30793059188971  -16.62242177955908   24.59638418977507
C         -16.34855692750109  -18.00536622984661   23.90713673707439
N         -17.66225588480967  -18.29562391348632   23.35172055405210
C         -16.43466150706898  -15.46537207862023   23.59189409948874
N         -17.60253385232084  -15.52943481277923   22.72635945733243
C         -19.37709654870143  -15.41518280240913   25.09704472969775
C         -20.56527698295893  -14.98818571926602   25.59868189174303
C         -20.99961421508190  -15.27564203877039   26.95269359250664
C         -20.15999049835597  -16.04916955877651   27.79442179312154
C         -22.21837308393075  -14.66176267350069   27.19537763145227
C         -22.97919428402940  -14.79200608414135   28.47661973351179
C         -23.43701164867903  -13.44921434269453   29.06300344496999
N         -22.29139002292079  -12.56705734403904   29.21967353381445
C         -24.17065310751381  -15.76105054884165   28.32680435132755
N         -25.17753584316699  -15.24979530974335   27.41310315452389
C         -22.58820128870585  -13.93153273468085   25.99772766947316
C         -21.59029419964497  -14.15365174384621   25.01082864181330
C         -21.68770926834706  -13.57511201574714   23.76091905478190
C         -22.75010866732892  -12.72657029208193   23.49691091942334
C         -23.71704720955277  -12.45358863693458   24.46769347207277
C         -23.64594875760347  -13.08010836989854   25.71244616175191
C         -24.76151101986232  -11.44983730462527   24.21936371137264
C         -24.42621387023031  -10.27805040062765   23.53792461256806
C         -25.37326043537605   -9.28232255853705   23.38885152430650
C         -26.67708015745407   -9.44523934822998   23.92015900647933
C         -27.01926745122198  -10.61863769935902   24.56250163489479
C         -26.05938569079222  -11.61067686713115   24.70889617277049
C         -27.39290958296507   -8.20373966945579   23.68925671781420
C         -26.47144787902342   -7.31772360748583   22.99459703977262
C         -25.26935565626901   -7.96892875431913   22.79343774296255
C         -24.02755422602391   -7.45152237507928   22.15163543421530
C         -23.30326043027603   -6.52131989965463   23.14898554889372
N         -22.04605329861378   -6.04289083726982   22.59546991176308
C         -24.27699683614384   -6.77138358296359   20.79372896484107
N         -23.20676968743883   -7.13870657099303   19.88280923253932
C         -26.88577808506573   -5.99707897050227   22.69029231655560
C         -28.11749738502535   -5.59219909936995   23.09283325887249
C         -29.04874928276212   -6.47686693775822   23.79133036884878
C         -28.64060019388168   -7.81341927059398   24.05779993216811
C         -30.18878347728998   -5.76151135331465   24.10711489598084
C         -31.51707603507521   -6.11403876242999   24.69785807012888
C         -32.60844088267353   -6.00348821760368   23.60022471759263
N         -33.61566356187310   -4.99111948175899   23.93412015925751
C         -31.60384286181880   -7.46544963504837   25.40833071501253
N         -32.90812730749347   -7.57324689762225   26.05280833448721
C         -29.99867415289791   -4.40400232256193   23.64584837159666
C         -28.75483815038828   -4.29827829022148   22.98593835067706
C         -28.38282384868839   -3.09184431534726   22.42117821534769
C         -29.24569976771727   -2.01093030517151   22.51015054589914
C         -30.46736666537552   -2.09508984391763   23.19072957821321
C         -30.82360327290029   -3.30785287911805   23.78362903563357
C         -31.36766690759201   -0.96408998309984   23.30034759321844
C         -31.00128730036596    0.41039823075137   23.24180908954619
C         -32.73590671800272   -0.99017403821923   23.50617109285139
N         -33.66581779085917   -1.96768595249178   23.61075751975438
C         -34.95839503775886   -1.63990577620480   23.77413395662879
C         -35.34452554196731   -0.31557732254009   23.83323792487047
N         -34.48807784586939    0.70324203390350   23.72998120794178
C         -33.22390126197223    0.40842244471863   23.56761010720185
C         -32.08877484854766    1.25241128190464   23.41832997176881
C         -32.10869098655969    2.69308434058845   23.47949686103514
C         -33.28142126879005    3.49599661141713   23.48824300874818
C         -31.04636173852667    3.57121358706703   23.57246978944013
N         -29.70537140270763    3.42344808297757   23.65478350829589
C         -28.90814763548857    4.50405376672171   23.75616906620523
C         -29.46470364905631    5.76479293184148   23.78076107788365
N         -30.78088360432084    5.99176843180882   23.73024450042335
C         -31.57358063576989    4.95561660535653   23.63244815516237
C         -32.99095573720273    4.85378972344289   23.57900881635024
C         -33.93542837044868    5.95264825863381   23.63715180440920
C         -35.31363850621049    5.70636745614258   23.60595589343045
C         -36.20720902626041    6.76152215047776   23.69616740137586
C         -35.72066214156268    8.09096830596247   23.81789582581636
C         -34.36189587273697    8.33764409159131   23.83435508966969
C         -33.48116419089214    7.27362308695219   23.74413735930696
C         -36.86356341688938    8.97323545327808   23.91723792744753
C         -38.04246600105804    8.12779512631685   23.84411754062040
C         -37.65447594784699    6.80225155849298   23.70889911090747
C         -38.57952187074724    5.63604251072059   23.60611831117590
C         -38.40882316848250    4.91373532477734   22.25981436305686
N         -38.84838055864033    5.79933748936505   21.19382557584775
C         -38.39943701743770    4.68432742726331   24.80010302574692
N         -38.81537946170850    5.36961137343748   26.01322553344961
C         -39.32732038846222    8.71016199908093   23.92826069901674
C         -39.40806785593254   10.06121213148998   24.08186787850093
C         -38.23455948739237   10.90899225577914   24.15597406852704
C         -36.94594481445530   10.32131567283086   24.06767346742927
C         -38.62050511804517   12.23113849574712   24.32125673629870
C         -37.66495936241017   13.37459758740460   24.40226292479209
C         -37.57886930831033   14.14504303466382   23.05073893144736
N         -38.75129469469910   14.85273805272038   22.60369745611696
C         -37.92406729750148   14.31262710975384   25.58918891612226
N         -37.70146812067681   13.57866204518347   26.82417500170686
C         -40.06898246959297   12.26367634670249   24.35165172846006
C         -40.55295397425530   10.92992693363003   24.20694534240619
C         -41.90672548741677   10.64728316799350   24.20303735221447
C         -42.81119079544125   11.68361496004079   24.34547761117537
C         -42.35090514447644   12.99656722396520   24.48686755003930
C         -40.98491991198680   13.29494836998558   24.48861512473437
C         -43.27675303338793   14.05037967418410   24.63787317480550
N         -44.01744827371967   14.91746191936405   24.76657083924559
H           1.71237284077834  -28.92495049213282   35.39477249036721
H           1.53779971488236  -28.00070210940295   36.92692147841393
H           3.14573038814939  -28.28676514934037   36.22743649837456
H           1.69347152462271  -24.60122931221350   33.96038423878067
H          -0.46318546737975  -28.67405234592799   36.01616187411776
H          -2.78475472545922  -28.96622300195704   35.96559337891073
H          -4.20110831793849  -27.21632475619677   34.86977923108903
H          -3.12947325474714  -24.12411572397921   33.14097090049023
H           1.66588020071016  -22.75531155578036   33.18550845989846
H           2.39379225187164  -20.72275901749537   32.22842157408554
H           0.68374692348665  -19.22849778922347   31.16952499686075
H          -5.00231059021663  -23.23510622350496   32.62564254586029
H          -5.07567147249033  -19.01010204293226   30.02133111141535
H          -2.94403280121271  -19.95663596204840   30.82924601702781
H          -9.12460183997720  -23.61707549451856   32.30848873904313
H          -6.34160266274446  -24.83652081661101   32.21258163251958
H          -7.40960095489222  -24.74653831627835   30.79927865458160
H          -9.01892520861934  -25.99168918245980   32.12275425576745
H          -7.59491407627061  -26.80129614338939   32.13992460287243
H          -6.73708885878936  -23.16464441921888   34.15799831721097
H          -8.03909688326588  -24.33867264970972   34.43502150169481
H          -8.33835459293997  -21.43715311602213   34.24239495533687
H          -9.55924851789929  -22.50252480807229   34.48530121029356
H         -10.44830977476700  -22.13379620974622   31.36451992303525
H          -7.57064230324132  -18.48614719111961   29.42220908433058
H          -8.88300100519495  -17.10596831303477   28.31334166586554
H         -11.49753845061075  -16.81484315011903   26.79984646409835
H         -10.35770729899945  -18.12851384808507   26.44961470353258
H          -8.70991066298414  -16.39783030937743   26.04693170397994
H         -10.03426055893314  -16.07743534260917   25.13859621410368
H         -10.20821586479743  -15.96812667171475   30.14175409852725
H         -11.53526216515200  -15.75759059868340   28.99309128072268
H          -8.86219782006186  -14.61736269478467   28.78424954991822
H          -9.99841874838634  -14.53858346555668   27.61081251449800
H         -12.93812936652872  -21.58478277988114   30.82558657852090
H         -15.07673198070367  -20.62849917887958   30.06035688429240
H         -13.04603797538467  -17.34881860467387   28.23533953983730
H         -14.78665581401538  -17.90469867660318   26.69855422010288
H         -18.55261649630776  -17.64758309784188   29.93288326412920
H         -16.41288419848458  -18.69358514610080   30.56747924524817
H         -15.29430531965362  -16.52815976123577   25.00868068298715
H         -16.02469075831548  -18.75913007969030   24.64371857250039
H         -15.62989354633640  -18.01448293652361   23.07990971874241
H         -18.36798441729123  -18.20047054864370   24.07587485199616
H         -17.69420227610710  -19.24704932201285   23.00161724622376
H         -15.49585268358859  -15.46152302535844   23.01006373734665
H         -16.47739810116028  -14.52148508089135   24.14941820067228
H         -17.76236178429961  -16.49465199092748   22.44708416706539
H         -17.45048302922827  -14.96607116618759   21.89728544758149
H         -19.06261212231450  -15.20488914673365   24.08525992728766
H         -20.45530843017854  -16.27860666351598   28.80823039292319
H         -22.30146192270507  -15.23958242105603   29.21014377920060
H         -23.85028299998285  -13.63169239987857   30.06020560316965
H         -24.24231735452266  -13.03176085256964   28.44482711811282
H         -21.86656229948281  -12.38903627097097   28.31472957437777
H         -22.58374129785818  -11.67656433772180   29.60680830180451
H         -24.64334714204776  -15.87703857777222   29.30684597549983
H         -23.77170139850571  -16.74472625021344   28.02332818588946
H         -24.80768239409511  -15.22923284974073   26.46805560942899
H         -25.98906681625815  -15.85790715811476   27.41484336466855
H         -20.93864364067302  -13.77013037673126   23.00800478188562
H         -22.83818146590369  -12.27030472162108   22.52180065710334
H         -24.40330272241615  -12.86546848151388   26.44855259247907
H         -23.41896195384800  -10.14038216201808   23.17420316207185
H         -28.01316726823240  -10.76463092616307   24.96088114122429
H         -26.32209981978225  -12.53002441265269   25.21225934109532
H         -23.36159684869719   -8.29385953845547   21.94597150091620
H         -23.07866729371117   -7.10150875774776   24.04798318311150
H         -23.98866769536329   -5.70776902526162   23.43905645260397
H         -22.21188651578870   -5.28327866656928   21.94378722249054
H         -21.44547254691813   -5.68765758587419   23.33003926591297
H         -24.37818261931820   -5.68011823199082   20.92917188033319
H         -25.21455475692180   -7.13885134612881   20.36450377806428
H         -22.31006910874486   -6.89698898405403   20.29199360913437
H         -23.30106937673477   -6.64941656354360   18.99948113818980
H         -26.22321661598671   -5.32024955622167   22.17311143004563
H         -29.29619273809679   -8.49804183125580   24.57198737016530
H         -31.74216362479302   -5.34535596461921   25.44913142886374
H         -33.06080994394104   -6.99383829386249   23.46605154920086
H         -32.15542914900634   -5.70504500717012   22.65042303418332
H         -34.02792514861830   -5.24015175178297   24.83051790689955
H         -34.36275142504094   -5.04799370554520   23.24533311324363
H         -30.76526542788038   -7.55468813112143   26.11733940549440
H         -31.53130599923492   -8.27480283583184   24.67774310897701
H         -32.96346386089220   -6.92267549143038   26.83111851331712
H         -33.03983358990473   -8.50568424296906   26.42905137103611
H         -27.43947882838658   -2.98861348269943   21.90381632865036
H         -28.97173948173369   -1.08030714144341   22.03516620749831
H         -31.71685188805496   -3.38088199363819   24.37993828027111
H         -29.98469367706878    0.72237924759144   23.07683404879142
H         -33.40767971580895   -2.96084271477879   23.58271121678473
H         -35.66534552021230   -2.44940858943171   23.85810031401427
H         -36.38287142688412   -0.05160491598678   23.96664763468150
H         -34.25831054367624    3.05379694517647   23.43722475389818
H         -29.31044233310980    2.49058228159621   23.66811759741473
H         -27.84517830081362    4.33746044538081   23.81974326612917
H         -28.83637332783866    6.63939181158674   23.85499456959558
H         -35.66217665037565    4.68998951207140   23.51870664980896
H         -33.98691572514445    9.34715103215569   23.92180114072285
H         -32.41815777176193    7.44962219186500   23.76210256072466
H         -39.60821859315961    6.00407268941812   23.64274642349369
H         -39.05483485132996    4.03057373346631   22.24234996705771
H         -37.36744711884394    4.57731176250075   22.14411031319194
H         -38.28059764227397    6.64115049935725   21.18847746623043
H         -38.74616930333013    5.34819403018354   20.29152517001171
H         -37.36051307544647    4.32393484895359   24.83892328372492
H         -39.05484430367267    3.81774715202783   24.66943047340214
H         -38.23958659123408    6.19343552538871   26.15812629504014
H         -38.70286453416438    4.76494779989492   26.81934898476052
H         -40.21318708805624    8.09513866004665   23.87674931465217
H         -36.05703061865122   10.93209994218988   24.12515765752486
H         -36.66851170099753   12.95442119274129   24.57052137799717
H         -37.31401882922265   13.42457467873675   22.27129817744997
H         -36.76686437298367   14.87384995126197   23.13167530917187
H         -39.53177062178658   14.22124134557931   22.46568519041686
H         -39.02471424087699   15.56883662844062   23.26610444365965
H         -38.92797363887971   14.75896933837282   25.53120288642820
H         -37.19557055537783   15.12994778952816   25.55638115547856
H         -38.34152440876384   12.79245716269868   26.88017346900490
H         -37.86639383773675   14.17416691219855   27.62811734407362
H         -42.25446377217457    9.63136081576314   24.09112592908687
H         -43.87425470727947   11.49339094830494   24.34917956177762
H         -40.69072853791099   14.32784442343496   24.59923112252359
