336
 SCF done       -495.272968654586          0.000598247637
N           9.72289205544446   16.27224560071476  -41.68755764053124
C           9.46437388554315   15.61222797206663  -40.49957965758124
C           9.70545143913217   16.24919101502247  -39.28005279353172
C           9.51365344154760   15.54872638219982  -38.10195660608976
C           9.08241607202691   14.19942092034683  -38.13549954024718
C           8.84084310749579   13.57503007354315  -39.34292220478902
C           9.03022882602421   14.28364479782263  -40.51757531809750
C           8.98587020581178   13.74050140135548  -36.76566410060124
C           9.36278526184132   14.86512671606757  -35.92315159912172
C           9.67879877542488   15.94952798997429  -36.72274961019261
C          10.12867494176941   17.31078097199119  -36.30354325725426
C           9.02186411637982   18.03460225526124  -35.52004090752251
N           7.83247977171017   18.14388222880744  -36.34582186989120
C          11.44985347406385   17.24655511770131  -35.51466213582777
N          12.13386684644713   18.52844289204062  -35.58307164805768
C           9.36245779265648   14.68998417794037  -34.51636018221178
C           9.02156079285963   13.47582878380012  -34.00969683945659
C           8.65616763690388   12.34599303122397  -34.85177118413247
C           8.64455570527770   12.52767353157634  -36.26075663424669
C           8.38991721608277   11.25240965174967  -34.05082369877052
C           7.99172892938777    9.86028287392391  -34.41487786032447
C           7.05145818707381    9.75503528564357  -35.63716261520965
N           6.19755169529452    8.58249850122937  -35.63574199201700
C           9.25265775671219    8.98385753714770  -34.58124288041976
N          10.19581640716365    9.57916788485588  -35.50574634637190
C           8.59633046899667   11.64663577259875  -32.67089455291063
C           8.96663290354208   13.01491745378442  -32.64025683180682
C           9.19859236496101   13.64772228496266  -31.43442184358695
C           9.08210523192837   12.91765359073817  -30.26443414851475
C           8.75638080059147   11.55503504650517  -30.27200011986403
C           8.49975667731242   10.92515420950993  -31.49599588936386
C           8.70209318350553   10.85155960004591  -29.00574567186359
C           8.74418950110818    9.52120049645995  -28.83693949785434
C           8.73461361233123    8.82180687133548  -27.56663451453167
C           9.16853230112746    7.49094796650311  -27.53634742988087
C           9.20032750578057    6.80622346149779  -26.33552016623694
C           8.77353905125326    7.44044162284973  -25.14273024505280
C           8.32568416377010    8.74754479070158  -25.16874464950451
C           8.31264733542055    9.42632396783744  -26.37484644111793
C           8.90711225959071    6.48061692392118  -24.06833714209946
C           9.44055502069774    5.26217630910787  -24.66142229178225
C           9.61825783967419    5.45540437939724  -26.02233751301150
C          10.03543933900475    4.49343894305577  -27.07789564369257
C          11.14275758509932    3.51007223145170  -26.67097031504941
N          11.94231256974227    3.18846529650961  -27.84246585162140
C           8.76811901763574    3.74865873294288  -27.60558152581533
N           7.99827400666308    3.02052214443190  -26.62776538230499
C           9.68292034618620    4.14837232713240  -23.81686796960432
C           9.39127061064487    4.25786502202710  -22.49361090151295
C           8.82833571593472    5.46697751400726  -21.91006155810419
C           8.60154084691593    6.59028898171874  -22.74934557305912
C           8.61397487326937    5.26329355647376  -20.55903663941817
C           8.09703893706807    6.16341509890356  -19.47892738097102
C           9.28645813739685    6.77241134561182  -18.70244957352789
N          10.09321668795289    7.64687369920501  -19.53962794586511
C           7.04872940698297    7.21865869051727  -19.86987239083874
N           7.57039888065257    8.35940322064149  -20.60520734747466
C           9.05301799746434    3.91656544287099  -20.23940962265200
C           9.53932968215735    3.30249065437032  -21.42093642291591
C          10.03752487598883    2.01408238517699  -21.38839822254562
C          10.05975084322742    1.33406274595127  -20.18475762971010
C           9.58010707634699    1.91617842427476  -19.00416500523759
C           9.05894778594650    3.21467647989462  -19.04662332179365
C           9.59213261572894    1.18991458749213  -17.74842504157055
C          10.43742353163613    0.18550653868582  -17.45725393769895
C          10.45054503534312   -0.63082183006067  -16.27852585444650
C          11.55251874176549   -1.45668970455931  -15.89215043083749
C           9.45083631972188   -0.88618278725838  -15.35902567960344
N           8.16653607549932   -0.48538531392124  -15.22584067314116
C           7.41022002023008   -0.97207001268422  -14.22412095836338
C           7.94281225693947   -1.88631121097175  -13.33862998092044
N           9.18873902105268   -2.36211743251249  -13.42851321026743
C           9.93593010824194   -1.89858794199119  -14.39363689991680
C          11.27097443468954   -2.21393154792620  -14.76909342752901
C          12.12999836692478   -3.18478142805648  -14.13447360854896
C          11.70844597697436   -4.35723983390989  -13.45026720330998
C          13.51096967327914   -3.21443514224964  -14.15136283141457
N          14.47029895987002   -2.37648128615676  -14.60305343492612
C          15.76964413034756   -2.69915293918698  -14.44642256988733
C          16.11758059056199   -3.88349929139996  -13.83117236914149
N          15.22669448108837   -4.75344682966232  -13.34038847111772
C          13.96376101600536   -4.44674203257701  -13.47494388174950
C          12.79229816311771   -5.14099611421517  -13.06305677729615
C          12.84701981312634   -6.45546609355381  -12.50342482132045
C          11.80387039043008   -7.24403692970885  -12.18444711720982
C          11.89974235383604   -8.64840707922784  -11.85213199509719
C          13.13461798234658   -9.29065597680513  -11.68905077541349
C          13.18933358474914  -10.66866008517395  -11.61186715979663
C          11.99684091190998  -11.43033151166821  -11.61389858801133
C          10.76801567663316  -10.79906269289581  -11.67511712116353
C          10.73037673809385   -9.42188888885071  -11.80505179471208
C          12.37998329316449  -12.82318901944728  -11.61459995139323
C          13.84037152860692  -12.86372107586228  -11.58693628931648
C          14.33203905699680  -11.56746309126147  -11.59639107357351
C          15.71280563640963  -10.99180023257933  -11.64018628613806
C          16.88151274547235  -11.96183957598102  -11.42180822889780
N          17.21406855715736  -12.69717628876989  -12.63375109131468
C          15.95697517113983  -10.19418862871647  -12.94844875594046
N          16.79378103637310   -9.03857662143243  -12.66677234053445
C          14.46862206067075  -14.13726358052752  -11.62719620183444
C          13.70131184316901  -15.24306553521617  -11.82027207248785
C          12.25442365790161  -15.18877110941234  -11.89255398953759
C          11.61003369421525  -13.93649355453097  -11.73194741243781
C          11.75359939521330  -16.43682539548190  -12.21827608005494
C          10.29448236177079  -16.74811381821211  -12.32737830444332
C           9.79288481046456  -16.63491723797197  -13.78230541677783
N          10.41527832536371  -17.62094376691588  -14.64946111516641
C           9.91724444298415  -18.10353864718180  -11.71545503434115
N          10.33322762370582  -18.14271700628546  -10.32175911310931
C          12.88666907583608  -17.31080614406758  -12.46210487835528
C          14.07794225039544  -16.59865320930457  -12.14828471804839
C          15.31519561889424  -17.18930820022099  -12.32616824986343
C          15.38243718835449  -18.43156392484794  -12.92971397255132
C          14.22855773004257  -19.09771831260667  -13.36795295698228
C          12.97366189243972  -18.55730584677011  -13.05616204592493
C          14.38909597180470  -20.18972783669817  -14.30420082600611
C          13.40630246436231  -20.77166446654170  -15.01451565345138
C          13.56798750475222  -21.51372238390673  -16.24635467583299
C          14.81922299066818  -21.74670981279302  -16.83082415029470
C          14.88741341214426  -22.14528539201778  -18.15304868300279
C          13.70299536596748  -22.33292607619891  -18.91106213509053
C          12.46661708646327  -22.23153707322941  -18.30041421031307
C          12.41147417594397  -21.82836128630614  -16.97864175094147
C          14.09331575919899  -22.46628328257356  -20.29612663313119
C          15.54660132031689  -22.38572649676866  -20.33189913968983
C          16.02792052312271  -22.25190028787132  -19.03840246477904
C          17.44252624313584  -22.17428025627559  -18.56946708077511
C          18.29292149985849  -23.36022386851515  -19.08540990778186
N          17.76548943979827  -24.66879482696173  -18.76396879405599
C          18.07389216903093  -20.82490440331002  -18.95474253615388
N          17.46620909433229  -19.77308611703940  -18.15723783519165
C          16.19767903242217  -22.31736833561580  -21.59103029266153
C          15.43173888243896  -22.27125474699191  -22.71376372463856
C          13.98221852685015  -22.37669744219519  -22.67432887089853
C          13.33143416616007  -22.50380127745828  -21.42151454914514
C          13.47518575868066  -22.20666162482323  -23.94932037769055
C          12.06067552624756  -22.30976287032652  -24.42134769896777
C          11.54066271224628  -23.74315915863700  -24.22434857809085
N          12.39357905722469  -24.66859224281664  -24.94736489686136
C          11.11718218999645  -21.25595216476970  -23.79435056573871
N          10.59497963538900  -21.64998331789589  -22.49696501154924
C          14.58559481735442  -21.90779684551874  -24.82841142603378
C          15.79188793405679  -21.99366359561719  -24.08575113358315
C          17.00645978788008  -21.73642811155159  -24.69355708074002
C          17.02250232434726  -21.30602960738389  -26.00819572318178
C          15.83796435969381  -21.12463257694598  -26.73438728466664
C          14.61906717222519  -21.48322788129999  -26.14341598054835
C          15.80183166591428  -20.48137453560010  -28.03190385506874
C          16.79204175293091  -19.75463855626225  -28.57542233229969
C          16.70539135653247  -18.92396929336180  -29.75866770375406
C          15.59268073147964  -18.92029543847531  -30.60795431564387
C          15.51738004178014  -18.00695284487599  -31.64518028611743
C          16.57382822785413  -17.07805098111072  -31.84817704050127
C          17.69790511598001  -17.11044969425171  -31.04574518763339
C          17.75625018640906  -18.03122425525328  -30.01544150740819
C          16.19094747377871  -16.20697968960413  -32.93688582752821
C          14.88829831894592  -16.66401715850093  -33.39003146551264
C          14.48570048945268  -17.74654014898742  -32.62456247482739
C          13.19803481601240  -18.48257317713630  -32.76959736052044
C          13.41285746663479  -19.99480949053973  -32.97428346210840
N          12.32544611755939  -20.53200953161278  -33.77497984591636
C          12.27966118324377  -18.19147298588402  -31.56891282950762
N          11.94282216990083  -16.78085224643251  -31.54312510610541
C          14.23976794140756  -15.97980183080023  -34.44336732572280
C          14.85421023349065  -14.88858118436059  -34.97925209199035
C          16.15034470640546  -14.41701650833064  -34.51497402884992
C          16.80892482922824  -15.12280811143619  -33.47464306899306
C          16.50585385259441  -13.28075065774583  -35.22054575434047
C          17.75238438227973  -12.47204527428971  -35.10713609972709
C          18.05394431768248  -12.02433323194642  -33.66379632281406
N          18.53716663064094  -10.65625131274345  -33.69289629690097
C          18.92859568104302  -13.25379882827416  -35.73240671088057
N          20.14197520096250  -12.45280734251254  -35.71980385363257
C          15.44355311799862  -12.99468437896600  -36.15907232277232
C          14.43082649289880  -13.98325691536576  -36.01880342538869
C          13.29332605307677  -13.94010585679704  -36.80796214558894
C          13.15280557970469  -12.91892393283719  -37.72678623270684
C          14.13636911808970  -11.92512310415440  -37.87342320759187
C          15.29125388165256  -11.97531905322230  -37.07777902655462
C          14.00321291768230  -10.84252669149969  -38.80999961039437
C          12.98861944203676  -10.61273755534488  -39.65968873818580
N          13.00007006735648   -9.48977050464921  -40.51936523356311
O          12.03298075082448   -9.34869370872374  -41.24889135474977
O          13.95335774010725   -8.73195055800597  -40.49176787459132
H           9.74477526291974   17.27809932564271  -41.64128019460090
H           9.27117081841660   15.90348732725699  -42.50871376635316
H          10.04208980021810   17.27630897954484  -39.27993124672049
H           8.50389031735424   12.54943251354950  -39.38053340491136
H           8.84473949011876   13.80905100934989  -41.47098672426475
H          10.33810879340717   17.90024595902269  -37.20157467963344
H           9.40507151672261   19.01544541848753  -35.18389824195142
H           8.74946938027749   17.45483572420904  -34.63495354262883
H           8.03418848551309   18.67428251608386  -37.18672058221323
H           7.09126201393329   18.61967772325058  -35.84409994827529
H          12.09872206115857   16.50525373004063  -35.98900676138429
H          11.25422327254724   16.91190941981834  -34.48435934121423
H          11.62324992991573   19.23301507644299  -35.06123570826679
H          13.05955049093117   18.45664614386887  -35.17612245337834
H           9.63585898261053   15.50100391020282  -33.85771850005047
H           8.37861356685338   11.71713342371894  -36.91892672035384
H           7.43664954144042    9.44808946050859  -33.56024691735295
H           7.62707153328360    9.72318908191073  -36.56434176994673
H           6.40234835096866   10.63339520451629  -35.66884622181827
H           6.75367092210202    7.73460525424994  -35.59357295066079
H           5.58480395313302    8.59023748263805  -34.82696757961523
H           8.93385992523612    7.96430258348686  -34.87296534863097
H           9.75568105208633    8.91052599045250  -33.61231465525594
H           9.79977407901653    9.65082746136732  -36.43583689063747
H          11.03709127554602    9.01817428668198  -35.56636351025949
H           9.46676007813227   14.69388307557872  -31.39870390590490
H           9.26437366632639   13.40248986562477  -29.31534355214646
H           8.21624402711677    9.88330870593210  -31.50978949113196
H           8.67698481457757   11.49270869372998  -28.13396015920564
H           8.84681054531517    8.88052624873098  -29.70367293689448
H           9.49058422436135    7.01912501331205  -28.45440407954663
H           7.99044550877579    9.23051303227812  -24.26278908511039
H           7.95149885755656   10.44314197556241  -26.39982450920742
H          10.43920247538339    5.06395204902498  -27.92039394362980
H          10.70838944023623    2.61279531526869  -26.19667712485189
H          11.80585771987272    3.98911938647372  -25.94529568434748
H          11.38222007083509    2.69355258648200  -28.52895410536896
H          12.72050870119240    2.58946015849975  -27.59059394072070
H           9.07572192730293    3.04278205280982  -28.38250193382452
H           8.10334960324691    4.48717212821131  -28.06120865588034
H           7.64870234829171    3.64663121797915  -25.90986646786953
H           8.56016128557165    2.31038684760989  -26.17147420487666
H          10.09293001575822    3.23064660333693  -24.20955943697313
H           8.19825780350920    7.49608210584355  -22.32091932005804
H           7.58273249286176    5.50813753345972  -18.76287328949756
H           9.86950007219370    5.93952703628581  -18.27454307056049
H           8.90060543040812    7.37311979831362  -17.87090903983926
H          10.38017210136146    7.15084471560150  -20.37805434155928
H          10.92805070803387    7.93895259072523  -19.04324260803893
H           6.56054752934802    7.52825452364327  -18.92831753563601
H           6.28380804032653    6.73709502135055  -20.49166603706255
H           8.45920601548146    8.64482831863730  -20.20084490916582
H           6.91746725685360    9.13309087339259  -20.55251064949290
H          10.40271001392163    1.53863400329498  -22.28750211904162
H          10.42999594704976    0.32028659678768  -20.15916916927204
H           8.68089757588601    3.65845953530592  -18.13478410803900
H           8.88919896893415    1.54242276853717  -17.00175275363692
H          11.21294921752349   -0.05905102138662  -18.17237107287702
H          12.46833255703642   -1.49545001555302  -16.45782008887551
H           7.77028639236904    0.14515105122194  -15.91399044411442
H           6.39170130688598   -0.62618046494949  -14.15509295734172
H           7.34507593604630   -2.27312998540332  -12.52766895717376
H          10.67333112418783   -4.58869665355543  -13.28357522297264
H          14.20171094933883   -1.49733491027656  -15.03016728475181
H          16.50475286181279   -2.00365921976461  -14.81727410607676
H          17.15626963680822   -4.15221988523204  -13.71356503114224
H          13.85861549049396   -6.82662957786916  -12.41596693665036
H          10.80000869039432   -6.85041839739825  -12.27571841133816
H          14.03748978548917   -8.70450805099243  -11.64574491605047
H           9.85072527587743  -11.36991962289522  -11.65322411060234
H           9.77548385911557   -8.92406373649535  -11.90128759252500
H          15.75613996126412  -10.26269182870231  -10.81976436402854
H          16.65345717646909  -12.60475263275168  -10.55486253806863
H          17.76381296250976  -11.36493006107317  -11.17345655204362
H          16.40683102417788  -13.19506424939205  -12.99258393950265
H          17.95013408725689  -13.36825705535524  -12.44659664276590
H          14.99494750047323   -9.93390347838923  -13.41572388056689
H          16.50580250218365  -10.84205738552527  -13.63377747383845
H          16.26320077125671   -8.31459416226100  -12.19149354216957
H          17.14444164148860   -8.63881068071117  -13.52935986960088
H          15.53637103484013  -14.24663456864588  -11.53463213887735
H          10.53249783103340  -13.86511304844492  -11.76805471295718
H           9.76091541634178  -15.98485119078972  -11.75086755749825
H           9.96171739573973  -15.59773146988685  -14.11968988620261
H           8.71480343967974  -16.82157057529801  -13.78906886714302
H          11.39769247207104  -17.39886380835403  -14.77590786841079
H           9.97683339276287  -17.60727370666368  -15.56379794912158
H          10.33339498265488  -18.91503343208092  -12.32596843540406
H           8.82712890395120  -18.20166362525272  -11.73549129335591
H          11.34014585211028  -18.02632197155052  -10.26076137621314
H          10.09961318734794  -19.04000389337866   -9.91081246910571
H          16.22130721501787  -16.66986304607736  -12.04867228253422
H          16.34864506880967  -18.87307581516948  -13.12969068731436
H          12.08188811583965  -19.07749128055612  -13.36148057646250
H          15.42006395245365  -20.42119853079063  -14.53812835420195
H          12.37519871239217  -20.56181233535580  -14.76131512204809
H          15.72286883150606  -21.53541939884320  -16.28104632505346
H          11.55903475855876  -22.40986221810063  -18.85842614779999
H          11.44803275526786  -21.68866230405031  -16.50825875103022
H          17.44382617601228  -22.21821274844965  -17.47466410687010
H          19.29223726144937  -23.28734301916100  -18.64598709006868
H          18.39705761347651  -23.30823203135241  -20.17028192211959
H          17.65706598549308  -24.76992989338058  -17.76000163537286
H          16.84976743383331  -24.78866111964231  -19.18559346437533
H          17.96866092457676  -20.66868313886691  -20.04035938061976
H          19.14164252965814  -20.84584962683595  -18.71545380089611
H          16.47241054409405  -19.71435178188688  -18.35713605332665
H          17.88202962265833  -18.87419855351060  -18.37429233474057
H          17.27237426884684  -22.23036315020724  -21.65478144809686
H          12.25365359758283  -22.52566559268015  -21.38002889850373
H          12.06505134220782  -22.11374371938637  -25.49961073999392
H          10.48216078017399  -23.78403499136175  -24.54498335400735
H          11.59413994637969  -24.00847568114174  -23.16745439000161
H          12.36425476884970  -24.48221643508413  -25.94413345796488
H          12.09443291353026  -25.62475112056310  -24.79617206116248
H          10.31019030841275  -21.05257272739163  -24.51956291837420
H          11.68328151292814  -20.33046781540610  -23.65964825785995
H           9.88932114414196  -22.37088453946766  -22.59997822330525
H          10.16578233880454  -20.85611699286378  -22.03611858591196
H          17.93228345421491  -21.84024697984460  -24.14622336162887
H          17.97008584347297  -21.08857612139014  -26.47658742424803
H          13.70647136723538  -21.36338988127843  -26.71185343039004
H          14.84041821085040  -20.52500669022138  -28.52782130533729
H          17.73807208369800  -19.68957166218062  -28.05472117188168
H          14.79494792350085  -19.62482013973231  -30.43820393729905
H          18.51321631830931  -16.42022255350716  -31.20665910423954
H          18.62350126712068  -18.05069181203728  -29.37049850743763
H          12.69145008263367  -18.12273300204556  -33.67071978003986
H          13.52217597134209  -20.49582312813428  -31.99980066474607
H          14.33849267311482  -20.14761599084954  -33.53568381235930
H          11.45080719321764  -20.49382450584422  -33.26220569059810
H          12.50180386517212  -21.50156973501799  -34.01225935888025
H          12.80493822898071  -18.41762052632850  -30.63778010038410
H          11.39417253020897  -18.84981078722644  -31.63216444909759
H          11.41359547541900  -16.52519975426177  -32.36970083126321
H          11.38134224042487  -16.55938492532890  -30.72913953903834
H          13.27660252554783  -16.31012379249384  -34.80337792827606
H          17.77001370776217  -14.79139289948156  -33.11272599855825
H          17.63076302121562  -11.55217479907511  -35.68459754763057
H          18.75967720710056  -12.72878046194704  -33.18948987432938
H          17.13163030250002  -12.03556181870308  -33.07446021864819
H          19.35283491392215  -10.59067358248640  -34.29285853334243
H          18.79144937569755  -10.34098681684685  -32.76346626162447
H          18.67439798794302  -13.46940324756138  -36.77353833447566
H          19.03686632874626  -14.21758237331851  -35.20892931476410
H          20.81231305541452  -12.80435457010543  -36.39266887281026
H          20.58096416092805  -12.48311452845228  -34.80596174019033
H          12.52441398199653  -14.69163827382831  -36.70763457792186
H          12.26745061723790  -12.88131473961963  -38.34110999307194
H          16.04555916718184  -11.21070845744496  -37.19112830691055
H          14.81594299805939  -10.12402840193207  -38.83067584281792
H          12.10532808074423  -11.22011794023763  -39.77162801506571
