115
 SCF done       -250.796779711387          0.000475060243
C          21.01835077603002   15.00568896826218   11.39275581579985
N          20.65016821776320   13.80048244039582   12.10213437862474
C          21.72513415079114   12.86287815776491   12.33667611155160
C          19.38339755751578   13.35955226311910   12.19328591815410
O          19.19814082678608   12.03559952033494   12.27819078078470
C          17.84517952083399   11.78856093049025   12.31051661887402
C          17.15946390924444   13.00792473638671   12.25229961818761
C          18.15432717647390   14.02894749430178   12.21584067706282
C          17.97902052324407   15.48854226257215   12.40451091984790
F          19.03958627095882   16.06017986994889   13.00299637459028
F          17.80107243463628   16.17781662049846   11.24850835002078
F          16.92997665973331   15.79975540813369   13.17806895502039
O          15.82514541020276   13.02972535549060   12.21698871414872
C          15.12562690862842   14.17131928417359   11.74933416506774
C          17.33822360645060   10.48868040761943   12.39254649635103
C          18.12200156225446    9.35972176930560   12.46865034398596
C          17.62464134277231    8.06579240640601   12.53359990600193
S          15.92810726932376    7.68040775454419   12.49929602340654
C          16.12696595852428    5.90860635971209   12.60992732242558
C          17.45317766816102    5.47750354125551   12.68604230194814
S          18.66719675500022    6.71184895971995   12.65301599091222
C          17.89196981111098    4.09025347010278   12.78296644926387
O          17.12209000616470    3.15144340820334   12.81349571811577
C          19.39086618708133    3.89056815113486   12.84165557129539
C          14.99817284474818    5.10057975427827   12.61176323156659
C          13.71860442754982    5.61298043748483   12.50091387305383
C          12.50985604883411    4.93303613816628   12.48768652642668
O          11.38685482728795    5.68768923652681   12.32137558883419
C          10.28426664246155    4.88545086484930   12.31827112254566
C          10.72069151324734    3.53874886306990   12.50280263687788
C          12.11023589736575    3.58162714330743   12.60677335842186
C          13.00403246228633    2.41039068179682   12.80893131278835
F          13.75967252965328    2.52818941760758   13.91888285927793
F          12.34470575400798    1.25392993603660   12.93706178358667
F          13.86074633766171    2.23580515572086   11.78320664148177
O          10.04569701364196    2.38367342564071   12.57918828919252
C           8.64202136254004    2.35392429326439   12.47497158213147
C           9.04107474993915    5.46628952236331   12.13845247937079
C           8.88001290922319    6.84576231075637   11.95574757801124
C           7.67927324571021    7.45832426994426   11.75090819406405
S           7.54008938926263    9.18798356677249   11.48918027369655
C           5.77667530692209    9.21780159336078   11.33165201933134
C           5.15441292126016    8.01411060272690   11.47105370313141
S           6.14413368060919    6.61024537481728   11.70518420660748
C           3.68708747344720    7.73650537193671   11.47806816929770
O           3.19932755112025    6.93008474862892   10.72949187979220
C           2.91726968944932    8.43868742925159   12.56583538615235
C           5.19698848226121   10.47928960174457   11.01867035984231
C           3.95169991986849   10.67046432600059   10.51071514062288
C           3.45221001318520   11.96554362724918   10.21422241099891
O           4.26064422399609   13.02525355123269   10.37949356999653
C           3.60260359901754   14.14264015512399    9.99077889954312
C           2.31148321832190   13.80099403230172    9.56255392213028
C           2.20949874093426   12.39677867034492    9.72181745831388
C           1.02047512392218   11.53233942593424    9.49855979328647
F           1.15887850540614   10.29611380240037    9.99404730332992
F          -0.09231314068476   12.02145099513725   10.08384241589554
F           0.70941227705356   11.37360345676326    8.19489580394031
O           1.48847537568993   14.75666072769779    9.11727219632682
C           0.28549239778565   14.43719930051608    8.44065197853056
C           4.20058697905623   15.41989857077871   10.04827445327976
C           5.46828688396804   15.64476043602002   10.47994475449394
C           6.04173691017444   16.94348451099048   10.53329190103371
O           5.32035887882068   18.00934355188319   10.15681737661406
C           6.07277047450391   19.14347772694372   10.29918202111291
C           7.32697063873763   18.78538272977336   10.78732614282532
C           7.30241251459871   17.37160543399576   10.93567136463427
C           8.46732294490445   16.59780606257461   11.43393171438365
F           8.23880640738824   15.27748869102353   11.51993355534823
F           9.54942404669798   16.73306875035193   10.64449642320396
F           8.85498913063226   16.98623003108064   12.66180649470322
O           8.42785625682571   19.47385577730091   11.10474302856875
C           8.44715144065530   20.87874443108810   10.98026880412933
C           5.46465567040746   20.38413200262320    9.94250522180338
C           4.20861409024839   20.47950998099848    9.48224516173143
C           3.59218750510170   21.78145487485302    9.11489832802137
F           2.48668668274886   22.04771265024054    9.83991786184485
F           4.41246274751279   22.83131290572558    9.28288219752965
F           3.19648226035745   21.81518572856396    7.82613942229594
H          21.78205273438055   14.76251890060387   10.65135040776146
H          21.41872115721498   15.75133101501778   12.08189551050919
H          20.16349048903493   15.42758304184067   10.87172380007077
H          22.59106935754189   13.41466489958251   12.69910797593539
H          21.99816952510434   12.32699120837919   11.42252129336929
H          21.42176739309948   12.13866183642624   13.08883554612062
H          14.19987694418990   13.79139806996548   11.31828974299623
H          15.68832210312963   14.70657262593055   10.98258423433571
H          14.88445535299328   14.84654310145261   12.57236587176267
H          16.26230036232650   10.40581050506657   12.38928468094207
H          19.19689288505392    9.47129556493829   12.48361009536302
H          19.85974287467257    4.28126413224487   11.94035050469770
H          19.59974245235317    2.82728286733585   12.92290905475378
H          19.81054228451651    4.40732942893940   13.70267351672693
H          15.18035937437803    4.04267192774518   12.69543097418662
H          13.60747828746501    6.68665803984844   12.39736280138993
H           8.37457069177199    1.30390080880444   12.58568393394791
H           8.30522927595525    2.71135781803490   11.49807684253121
H           8.16831347634282    2.93382132250217   13.27169652943110
H           8.15757233193925    4.85264871330350   12.12486761829607
H           9.76348383431462    7.46662383642691   11.96716751669208
H           3.38622107039874    9.36975945851641   12.86578368092975
H           2.89160435530625    7.76643866347262   13.42409026146907
H           1.89354081616935    8.60885152084584   12.24278158759274
H           5.83879244267880   11.33748808294680   11.16098184067010
H           3.31776549817342    9.82873235909328   10.29212713325323
H          -0.03927329869740   15.37190193527462    7.98620850703301
H          -0.48433694978087   14.09080994211445    9.13253611525259
H           0.44803228649600   13.69399559527867    7.65812436231268
H           3.57669331196615   16.23674591520817    9.71992716445234
H           6.08116895194777   14.81982163271188   10.80227730276736
H           9.43823208306448   21.18063559852363   11.31515168981162
H           7.69141222246311   21.34428944023537   11.61846632448062
H           8.30630446014645   21.18745193573486    9.94096554600893
H           6.05357090253022   21.28027530131818   10.05171851327510
H           3.56868237124015   19.62335675709605    9.35036782144942
