168
 SCF done       -263.662022601816          0.000516284495
N           2.94443130695027    3.08840334479713    1.26319070698809
C           3.79011613416769    1.96174918698744    1.14787803444419
S           4.60472250526064    2.02629021075477   -0.55499102786642
C           3.30948464400465    1.09435591920504   -1.24394028363572
C           2.48147126836955    0.54793381391698   -0.28288188583818
C           3.09253462348649    0.58294440040879    1.08712823282266
S           4.58397593257074   -0.60836980844778    1.25863245957003
C           3.86633502798881   -1.79623046612838   -1.92664006597938
O           2.72491303373895   -1.97322123782249   -2.08558010203368
S          -0.39325661789955   -0.91422412842971   -2.48314980765099
C           3.25134059536334    0.92667547784468   -2.67174549365077
C           3.90522722475967    1.91517684112189   -3.61525176524384
C           3.20668144515564    2.23718098844813   -4.86357829765235
C           2.76890462856051    3.54846653438989   -5.10479105508052
O           3.06872013832840    4.46370241815144   -4.14186944243222
C           2.75594962854932    5.82546575942753   -4.36189303010619
C           3.28647318371674    6.61140454933588   -3.17309089440660
C           2.04192520366671    3.81824967492769   -6.25159550113241
C           1.76819215285433    2.82510356288783   -7.18988502438908
C           0.96225287174498    3.17138155622219   -8.41168166447640
C           1.73055119082904    4.08980451415561   -9.36310713008968
C           2.24248621865307    1.53690974286297   -6.97728750386406
O           1.98822401338267    0.53236573918910   -7.89207438163403
C           2.96832902531604    0.40693239272029   -8.91342581827023
C           2.61502525710592   -0.80305314110079   -9.76177668157957
C           2.95524423113872    1.23154307812919   -5.80181654091533
C           3.52090400930714   -0.08339112249843   -5.60288813872936
C           4.31154037925848   -0.38579585588717   -4.56508778654279
C           4.53608824593515    0.55500189852546   -3.46386143279641
C           5.81307098886250    0.40123218504273   -2.71419345943544
O           6.64478233261713    1.46064280346272   -2.92709485811157
C           7.84042414027498    1.57123498476851   -2.18050939239589
C           8.99581692722820    0.78217112633061   -2.79039201155220
C           6.07185523483917   -0.67771639451615   -1.95498801597195
C           5.14481873953231   -1.74855990812726   -1.66618921509893
C           5.69642975664044   -3.00655028358218   -1.01103788389051
C           6.49379593442804   -3.82733475907521   -2.02008733747627
C           0.43940452162958    0.27777261409588   -1.74445506631050
O           0.46109637127773    1.54408771086505   -2.14836871203228
C          -0.22504324108000    1.89357952155459   -3.34489693999653
C          -0.30096923354141    3.40668687826163   -3.40927082883562
C           1.15655657818803    0.07880150357711   -0.47400314244423
C           0.41790160080025   -0.37631623748300    0.59107678966869
C           0.92517657448884   -0.30300612261245    1.89736850830387
C           2.16208315732572    0.20024231185273    2.18390396344499
S           5.12105875506831    2.07116673579249    2.37199074533254
C           5.06054844065374    0.25619959500886    2.80258109798827
C           3.98903772632882    0.14399453595980    3.83097846832499
C           2.66908687329412    0.17574630657262    3.53002404731714
S           1.56234559333076    0.04071462116565    4.89278688363972
C           2.79089754189921   -0.02840465164851    6.16497968019618
O           2.54121132611591   -0.10131970469761    7.32705746688120
S           4.44153798482858    0.01845087119618    5.50874833701250
C           6.38330159146447   -0.15978320506459    3.34358783085106
C           6.96943163532367   -1.32881333774377    3.13305273647441
C           8.24064471516485   -1.66012501906316    3.81292324450776
C           9.47212980565971   -1.34542358103530    3.24216771815226
O           9.66004871552275   -0.81294815587074    1.98966158995093
C           8.93372056602944   -1.34534854573097    0.90157018560567
C           9.09032413978153   -2.85786897547445    0.77314746551557
C          10.62361368815712   -1.48369910086420    4.01092350710685
C          10.57989365326165   -1.96233351804114    5.30261725894781
C          11.84145128508211   -2.07025952163352    6.11356940983507
C          12.44918344126850   -3.47142376667253    6.04698638627718
C           9.35000844911261   -2.36477442201927    5.85542209331552
O           9.48823146159756   -2.96937663735193    7.06935096975521
C           8.41834307965353   -3.17322973474902    7.96591686071129
C           8.09375089745321   -1.91508104776875    8.76689519963360
C           8.17265786737171   -2.18224046832319    5.11669259725339
C           6.82281882838588   -2.41894308510328    5.65807529009434
C           5.86805749056589   -3.21143659112393    5.16706519273250
C           5.96408610604560   -4.15032625476549    4.05004744196037
C           7.08808452386977   -4.98088276137988    3.89158317501919
O           8.03710807821582   -4.89493335659693    4.85747019880503
C           9.18608891583806   -5.71554564169309    4.80567821671973
C          10.20746332440337   -5.27090543629985    3.76197946569167
C           7.14407349016687   -5.85798959574938    2.81801329090566
C           6.14209554966068   -5.91150233577830    1.86304431319086
C           6.23448426273981   -6.84995854583037    0.68882624425481
C           7.65116664573315   -7.05053389842793    0.15642308855162
C           5.02333710372330   -5.08933150584933    2.00781176331826
O           4.07705238167008   -5.10030162498501    1.00035290534453
C           2.76547063728221   -5.55231009938492    1.30171733659591
C           2.73289936127625   -6.88232395217695    2.04216717397945
C           4.91813566375001   -4.24670225126826    3.12119230270088
C           3.73052053539170   -3.39168422641538    3.24517472161686
C           2.76202080089579   -3.49417344260599    4.15684710692546
N           2.68989652605486   -4.52908032008137    5.13595346084193
O           1.84737383759551   -4.39322995566071    6.00110245973424
O           3.43511656025338   -5.48423548689026    5.04406303326332
H           2.66228725718143    3.28421102540044    2.21397442024024
H           2.14454004028506    3.03929053089999    0.64369450101439
H           2.38145012940078    0.40700857676951   -3.04866321616073
H           4.39761868962089    2.75129605737996   -3.13478890054195
H           1.66777244715830    5.95708639503507   -4.44645247049456
H           3.22546234706465    6.17385124002851   -5.29185508911442
H           2.83250252325635    6.24713784515452   -2.25549164109881
H           3.05479650565044    7.66565142984409   -3.29307051387594
H           4.36303133148179    6.48767496364189   -3.09655091883393
H           1.65625999933606    4.80878179927693   -6.43495991556867
H           0.04341252945925    3.67460271004886   -8.09961545578139
H           0.68294880132240    2.25208213073306   -8.92709647559957
H           2.66047092447784    3.62407494381929   -9.68279276993838
H           1.97580247148655    5.03097701847264   -8.87648699896431
H           1.13097867102943    4.30377675146432  -10.24477257066057
H           3.96558502276694    0.28716535579890   -8.46495116680288
H           2.98463598358102    1.31435861145533   -9.53339878173273
H           3.34304564635885   -0.92069126922704  -10.55951168254818
H           1.62671003846824   -0.67545033428717  -10.19467896843784
H           2.60757990623796   -1.69997139476870   -9.14854244512290
H           3.33646822151083   -0.81261530183938   -6.37659556463297
H           4.81860441215825   -1.33715770249333   -4.51036251493628
H           7.66468607430019    1.27530924906202   -1.13946490796364
H           8.07683332265623    2.63892184597141   -2.20084571522287
H           9.89699560528241    0.94814506216614   -2.20647012802920
H           9.17010700660042    1.11512093091406   -3.81038853402710
H           8.77872223363100   -0.28262717362804   -2.81189994254853
H           7.02636946780242   -0.78867234776199   -1.46670548060845
H           4.88426020633047   -3.61023050563887   -0.60665466356125
H           6.33149545042861   -2.70329110163737   -0.17729276674659
H           5.84745242633421   -4.16471532888047   -2.82708119184426
H           6.92102060673705   -4.70141181331990   -1.53632153491368
H           7.29872539594203   -3.23603261141267   -2.45296305464729
H          -1.22206321032803    1.43694620254488   -3.33312702753145
H           0.32698319263599    1.48930698901073   -4.20291476169571
H          -0.72839215882399    3.70862499208945   -4.36062517755775
H           0.69733124815304    3.82256134400873   -3.31281700858088
H          -0.91887755018444    3.78938973099188   -2.60091014129151
H          -0.58800471640431   -0.72772748081854    0.42994394061341
H           0.29645140001890   -0.62229415193388    2.71561625313885
H           6.84521419236196    0.57693531625295    3.98776376292413
H           6.50915090754027   -2.06802938067417    2.48743756358553
H           9.36938921723090   -0.84464205392839    0.03131690085969
H           7.87218731090160   -1.07143138022349    0.96932471200841
H          10.14570966453817   -3.12032768113925    0.81043835291298
H           8.67788975903825   -3.19617935187142   -0.17284241742910
H           8.57592279582459   -3.36845116934568    1.58511001970860
H          11.56339593464465   -1.18403774047787    3.57313210391331
H          11.61466543027233   -1.83622656956260    7.15448482102858
H          12.56686754167140   -1.34400777630702    5.74216442856515
H          12.71159877800847   -3.72484795402281    5.02240170178267
H          11.73699040651130   -4.20247926257757    6.41824812710152
H          13.34834879184949   -3.52010991359164    6.65680027664201
H           8.78113150971517   -3.95349002387545    8.64313783390353
H           7.53794344552013   -3.55180582330189    7.43884199526827
H           7.85051052919470   -1.08643390934201    8.10531166511616
H           8.95192031282132   -1.62511804871977    9.36883332737207
H           7.24919199516085   -2.10293047317138    9.42399504130122
H           6.55484683198089   -1.79358136440887    6.50106126103303
H           4.90302921730655   -3.16643302911314    5.65345189171024
H           8.90306557133880   -6.76603477331770    4.65967080295149
H           9.62152262192357   -5.61282115988909    5.80332899326947
H           9.83635220669652   -5.40842077461890    2.75000103828612
H          11.11763332929961   -5.85234606997201    3.88239357818194
H          10.43530140122719   -4.21818183345127    3.90395969865574
H           7.97700495581529   -6.53125778409531    2.71679324687808
H           5.59696256892207   -6.45795899375702   -0.10477617836521
H           5.82699266284860   -7.82113141848382    0.98649096271520
H           8.24999841967809   -7.65569487382285    0.83250364474922
H           8.15017474611831   -6.09336028813050    0.01812801979345
H           7.61499472534165   -7.56396115324062   -0.80188851842709
H           2.28967129764182   -5.64352676850263    0.32118981472205
H           2.22414426739219   -4.78785975966225    1.87427244622255
H           1.70037576310656   -7.18059295290406    2.20183973648175
H           3.22662473088740   -6.79390163633530    3.00810625269486
H           3.23503982454272   -7.65176790632022    1.46104809096133
H           3.64697223014661   -2.60803269417416    2.49868537914765
H           1.92894646083722   -2.80919946773138    4.21617956470142
