246
 SCF done       -378.184434764966          0.000324675838
N          32.34777100028820  -37.15284081892224  -12.60021818189508
C          31.68506122703617  -36.11925228452322  -11.96786515857531
C          31.35251346836890  -36.22466997664940  -10.61258795250158
C          30.76139023855708  -35.15708619147942   -9.98152637388972
C          30.48591568223348  -33.97020527377568  -10.67851125179648
C          30.81128961222538  -33.86293574384355  -12.02128480880917
C          31.40687236669054  -34.93568391696724  -12.65607039791116
C          29.86056957525446  -33.03205119948068   -9.76741084257506
C          29.75845183046635  -33.63962776904174   -8.50426877601942
C          30.31729901130614  -35.04347279922964   -8.54211239196433
C          29.23277468069983  -36.08364108698148   -8.20556312858534
C          28.01641681528190  -35.98387408473955   -9.11810901651367
C          31.50302499888069  -35.20613215898804   -7.57419137550174
C          32.62130359723841  -34.20593514397839   -7.84005188222770
C          29.22062367749951  -32.96174136617397   -7.43310694978886
C          28.76049676846866  -31.66825850588421   -7.65383517295097
C          28.82541856127215  -31.07143898767391   -8.92568871081081
C          29.39997908766158  -31.73919990720010   -9.98744733960007
C          28.22403743483583  -29.68343414818638   -8.88985966792204
C          29.19813579023667  -28.61152266205908   -9.39797668878496
C          30.48926017967539  -28.57556926006631   -8.58842420210437
C          26.87157420232974  -29.62649330802338   -9.63873851872006
C          26.91673443906843  -29.95589502196606  -11.12494373446383
C          27.91274557004922  -29.52495171860636   -7.41581284898437
C          28.20033766992451  -30.71149144451491   -6.72301053813109
C          27.95673641894852  -30.79594739549751   -5.36074714432961
C          27.42220997293191  -29.70134308955184   -4.71261535570615
C          27.11585421613467  -28.51307285665781   -5.38968027057383
C          27.37832541765963  -28.44051714740840   -6.76597275317267
C          26.52700002277221  -27.42619554553761   -4.64047099226539
C          26.03883370251144  -26.27542102391010   -5.14013819089921
C          25.40958095883919  -25.22072268948123   -4.40210908209489
C          24.63430107097483  -24.18080521144593   -5.01005987099191
C          25.35029460910142  -24.98454802395146   -3.04181924000263
N          25.91435539029214  -25.55841815524829   -1.95374363931080
C          25.66659202945204  -25.06664046765728   -0.72559488155858
C          24.83980631685754  -23.97399764024822   -0.57520656923988
N          24.27129972544986  -23.33101331680583   -1.60186122425579
C          24.50578835924082  -23.79301826373342   -2.80007964549178
C          24.08032986231343  -23.32405456978175   -4.07618518357397
C          23.20672989126709  -22.19910464091678   -4.29694904886413
C          22.33240976153895  -21.63742023288287   -3.32283396439292
C          23.00489907977608  -21.48301273419437   -5.45868124577304
N          23.55777804149184  -21.50128890983135   -6.69358053962527
C          23.14058109932177  -20.62493729369158   -7.62903037434459
C          22.15471551535737  -19.71035077702278   -7.32746530678104
N          21.57641561869374  -19.61230114079992   -6.12291669767519
C          21.97170537437896  -20.45295742806463   -5.20577892239453
C          21.57384080601642  -20.59819558296150   -3.84735825807587
C          20.53686875308147  -19.82198518340844   -3.23741409694806
C          20.11591803890484  -19.94897071884150   -1.96512674803328
C          19.02270538642973  -19.23289793344340   -1.37618234674104
C          18.14812472861097  -18.29301251130481   -2.00774073219394
C          18.55919918857888  -19.36044195976291   -0.08301839737237
N          18.95524470512258  -20.09277006526641    0.98591071461512
C          18.27183176991564  -20.01129968050672    2.14287637283713
C          17.17121444111922  -19.18654321057625    2.23578617921061
N          16.71594725323546  -18.43444211340642    1.22380715985497
C          17.36907806487723  -18.49857952961665    0.09596338344740
C          17.15857708823046  -17.84230833842029   -1.15008699800779
C          16.08807335889241  -16.92189734173161   -1.44081842162279
C          14.86536283172340  -16.82200604637614   -0.72000538649099
C          16.00832314509471  -16.00638272745959   -2.47068085305211
N          16.85246886344637  -15.60266654031417   -3.44747260763237
C          16.47035375323189  -14.63909953282192   -4.30801559639722
C          15.22260412864378  -14.06418241420385   -4.19145603904950
N          14.33975394152640  -14.39183176892605   -3.23861997278219
C          14.69746012872002  -15.32321855069753   -2.39573053692656
C          14.01033272962185  -15.87964812671469   -1.28140981996872
C          12.67269767409687  -15.52186743523999   -0.92015966581999
C          11.97267781181822  -16.04108734687443    0.10596777404790
C          10.60714817796223  -15.73235453713753    0.41530341648681
C           9.71652847300633  -14.88342674473296   -0.31337687693559
C           9.86326068680730  -16.23917356692164    1.46153674631669
N          10.13628182974125  -17.09198044167099    2.47800182331006
C           9.17008889773263  -17.41551371911451    3.35773909174743
C           7.90743003517740  -16.87816280170136    3.22276443353280
N           7.56041671923382  -16.03013982178337    2.24524812017621
C           8.48506538085145  -15.70603353655703    1.38355812047166
C           8.44978392433927  -14.84983362780884    0.24646409905912
C           7.29229054020519  -14.12934562178908   -0.22085423542436
C           5.94310874332406  -14.41188961600734    0.12085675513129
C           7.24975552632177  -13.06263756091241   -1.09845347204371
N           8.19371131675653  -12.31978993600985   -1.71826229025554
C           7.82967442002119  -11.30085371859956   -2.52005848098714
C           6.49358177619243  -11.01590308054511   -2.70359824953208
N           5.50265914320155  -11.68677772854843   -2.10391405863325
C           5.83683114160757  -12.67770849062512   -1.32018125761231
C           5.05068589810502  -13.56503031216245   -0.53149772827469
C           3.62425408373722  -13.62206075181839   -0.43744224695462
C           2.79206930606597  -12.81557646419143   -1.12267855034376
C           1.34945531485256  -12.83698501942230   -1.10735951468608
C           0.66524767876576  -11.88726582472591   -1.88452182426390
C          -0.70608924949205  -11.88133044536501   -1.91405712441316
C          -1.44315865460355  -12.82102824957020   -1.17489455154107
C          -0.78285129526308  -13.76289106716333   -0.39891579570732
C           0.59700803289012  -13.76264447604376   -0.37099726658422
C          -2.85400544019161  -12.58553131902818   -1.40105308535637
C          -2.98833341378259  -11.49150921897158   -2.27554902312506
C          -1.63130124722905  -10.96161661098992   -2.67613302491730
C          -1.44698906584403   -9.49556784738843   -2.24471652897227
C          -1.65271272370829   -9.29202328640705   -0.74862396853829
C          -1.41188390523958  -11.08207665079851   -4.19559575332433
C          -1.57559706186876  -12.50964793289270   -4.70299945061237
C          -4.22927990780660  -11.03665072310688   -2.66251647447191
C          -5.34360606584154  -11.70085070374550   -2.16199779102370
C          -5.21054724545916  -12.80057088905325   -1.29702871766118
C          -3.96894314770842  -13.25279847481674   -0.90572328402131
C          -6.56900334672608  -13.34059438300614   -0.91142362942367
C          -6.74570236622123  -14.79611098453263   -1.38196733994501
C          -6.53865065374760  -14.95996801330065   -2.88280950769443
C          -6.79384566457297  -13.26039048073819    0.60948418105169
C          -6.62353312960485  -11.84819857725377    1.15594169187225
C          -7.49427736683440  -12.40536242487452   -1.65548018938741
C          -6.75397101939338  -11.45548179344305   -2.37881748228417
C          -7.40880924441780  -10.48879485103639   -3.12638103655317
C          -8.78880506775396  -10.48220889643122   -3.14138098476190
C          -9.54402998813943  -11.42648352347825   -2.43325762152699
C          -8.86647213720131  -12.39757651423504   -1.68033802756456
C         -10.98527032572617  -11.34670483161922   -2.50342648169604
C         -11.86856569275989  -12.24507857712153   -2.03290182887692
C         -13.29558453131302  -12.12433119800163   -2.11279245870249
C         -14.05939416396808  -11.01509123408984   -2.58931849612620
C         -14.22156743963160  -13.07702533726741   -1.72866053027585
N         -14.12470718687255  -14.32558134776390   -1.21890588474358
C         -15.23975711531997  -15.03225045492293   -0.95690500497579
C         -16.47896654059517  -14.48051991695217   -1.20933190367241
N         -16.65385604113020  -13.25480185701776   -1.71343239910520
C         -15.58079766945058  -12.55706137527666   -1.97364289769991
C         -15.42321486187196  -11.24617555175951   -2.50735398523123
C         -16.51238442509909  -10.37489691218898   -2.87229982720621
C         -17.86073683113234  -10.76636220089999   -3.01239858010000
C         -16.47519068812217   -9.01032262729297   -3.14389628184889
N         -15.50041958523950   -8.07859334170901   -3.12526300913682
C         -15.78621118240742   -6.79664476488837   -3.42797022467215
C         -17.07830640915799   -6.44012272777827   -3.75187938565754
N         -18.09958713124934   -7.30152129857022   -3.76477209476418
C         -17.83401551705607   -8.54842992131662   -3.47167808345704
C         -18.68063372046467   -9.69046593878103   -3.37632212501854
C         -20.07745480939491   -9.74781714989822   -3.60082351458807
C         -20.84918809471244   -8.69905671949982   -3.95601697753744
N         -22.22830265841057   -8.84363547509862   -4.15696879190874
O         -22.74248881286987   -9.94424075272351   -4.00953071117418
O         -22.85533327537313   -7.84173089208443   -4.47508203150489
H          32.26650531348854  -38.06244017093730  -12.17559311872667
H          32.31419128061662  -37.15669570579814  -13.60675343037405
H          31.56713954196363  -37.14266291073297  -10.08315948784614
H          30.60226869736481  -32.95712731578725  -12.57113026968029
H          31.66758141585131  -34.86836546466117  -13.70310401307644
H          28.91965787976248  -35.94058196801166   -7.16885505102154
H          29.66756014248023  -37.08245145995141   -8.28799142303406
H          27.55294192441444  -35.00376411450887   -9.03088930178267
H          27.28099677884187  -36.73911946329405   -8.84897584617148
H          28.30381579123312  -36.13457891919558  -10.15636067163003
H          31.89507306823177  -36.22138912738989   -7.66805221353586
H          31.14055263918322  -35.08184315017571   -6.55117516541160
H          33.00809634321052  -34.32517914154989   -8.84959250601157
H          33.43694326024929  -34.35781608825231   -7.13637535326028
H          32.25614725278059  -33.18708499979508   -7.73129865548541
H          29.15886893026935  -33.40991162066724   -6.45209804793556
H          29.50722578069405  -31.28029181904968  -10.95848595697471
H          28.70928057680338  -27.63569772839012   -9.34732830422120
H          29.43984253183147  -28.81192585551827  -10.44274514784782
H          30.28127598868074  -28.35099115373685   -7.54448248221219
H          31.15934031334061  -27.81283568729289   -8.97955314336474
H          30.99507028685906  -29.53743299771892   -8.63697150478832
H          26.46145107580253  -28.62194693188891   -9.50809745770614
H          26.18942854057081  -30.32553775934375   -9.14714255482097
H          27.58915568977667  -29.28963825518829  -11.65934172422444
H          25.92132845411000  -29.84184110450159  -11.55003677967526
H          27.23534776199588  -30.98239664652120  -11.28331435964695
H          28.17825133338733  -31.70084226862345   -4.81387950504380
H          27.22358766470212  -29.76200252745971   -3.65054651911746
H          27.16619657288646  -27.53212411992529   -7.30918602844871
H          26.43862085129898  -27.62171879888776   -3.57793458588506
H          26.06671232166574  -26.11279984792931   -6.20946342364977
H          24.47909160244712  -24.13486436031598   -6.07481022367168
H          26.54691722095369  -26.34079037712807   -2.07676055992221
H          26.13743798104518  -25.55575262650839    0.11165563402101
H          24.62842146689893  -23.58008255639412    0.40719490717197
H          22.29016547637123  -22.00481400051746   -2.31519612111512
H          24.30473834194103  -22.15523465230378   -6.89491228265882
H          23.60681692560191  -20.67281129403673   -8.59973256004205
H          21.81177938015992  -19.01242390333778   -8.07602997107426
H          20.06680765476733  -19.10815721872870   -3.89827805689652
H          20.61382272662561  -20.66510037684123   -1.32199722307859
H          18.23972158835082  -18.02470270901349   -3.04505278669663
H          19.76185998416799  -20.70003029320108    0.90109129363260
H          18.61746843627545  -20.60863205815397    2.97108682304983
H          16.61971984919845  -19.11775018884661    3.16115451685018
H          14.66249272630840  -17.42313815846103    0.14604573087299
H          17.77861061197468  -16.01015207913863   -3.50426174736820
H          17.17232455248338  -14.34624678608318   -5.07179427655870
H          14.90956215690206  -13.29724589579364   -4.88364970813233
H          12.21986767619330  -14.78672008578554   -1.56985160677315
H          12.45367490892953  -16.76734036142265    0.75039916790355
H          10.01017404944579  -14.38363868424736   -1.21914465726229
H          11.06714604064371  -17.48350933892386    2.56135416046787
H           9.42514166176879  -18.09885547082040    4.15159324077614
H           7.12852306536405  -17.13376335253491    3.92475900294073
H           5.66849065571478  -15.19416718483900    0.80423796143458
H           9.17253483561704  -12.51973942647271   -1.54709202621907
H           8.61414083378313  -10.73396087154587   -2.99452710812002
H           6.19208436951579  -10.20655008346599   -3.35117986780189
H           3.24309437790958  -14.38500222721180    0.22882715030416
H           3.24095165410117  -12.07069660163316   -1.76515635955749
H           1.23566735593154  -11.16796860775850   -2.45544319766604
H          -1.33939309677366  -14.48965730705476    0.17582587349156
H           1.10790347895225  -14.49862689803954    0.23084208110670
H          -2.15605505020849   -8.87396107029661   -2.79677846623185
H          -0.43895413657564   -9.17583840708611   -2.51752910831203
H          -2.65880557134917   -9.58595896440671   -0.45690644535645
H          -1.50949929428000   -8.24550259962604   -0.48793310470946
H          -0.94271136214221   -9.88971673028302   -0.18150612137069
H          -0.40626095670825  -10.72771561122485   -4.43201664333641
H          -2.12523637244240  -10.43127198367882   -4.70689315325614
H          -0.86084363810073  -13.17086302749979   -4.21835803852616
H          -1.40894939899351  -12.54854608900918   -5.77740389768617
H          -2.57836355157169  -12.87739864563485   -4.49581364878748
H          -4.34052848114793  -10.19527708867295   -3.33089799248048
H          -3.85768510479787  -14.09506728105659   -0.23851893898916
H          -7.75083019419013  -15.13217418911124   -1.11517665696280
H          -6.03096352373003  -15.42592494999508   -0.84762253725497
H          -7.25063974339404  -14.35201126439058   -3.43696321164078
H          -6.67443394447662  -16.00045914955666   -3.17040983336957
H          -5.53410125550195  -14.65285160783546   -3.16456978692513
H          -6.08448611989618  -13.92769192160932    1.10399453064142
H          -7.80138691888859  -13.61783193510258    0.83593042750148
H          -5.61840007085894  -11.48224006488531    0.95930856654403
H          -6.79055671456127  -11.83774236612633    2.23090703445078
H          -7.33317299635384  -11.16862615409397    0.68889221621484
H          -6.85207918593266   -9.75049753959544   -3.68477453177725
H          -9.30886295397061   -9.73112598130466   -3.72058689645839
H          -9.42252062108335  -13.12765629102614   -1.11089581431128
H         -11.36387489748872  -10.46873785351436   -3.01061990741664
H         -11.50686973700234  -13.14769168203206   -1.55515444893032
H         -13.59875656902386  -10.12862998302412   -2.98763111571128
H         -13.20951114811609  -14.72456476754971   -1.04338901886061
H         -15.12028294447660  -16.02415710493655   -0.55287808920002
H         -17.37815167340207  -15.04017150864509   -1.00358718440162
H         -18.19923536135810  -11.77228181022859   -2.84889652993737
H         -14.56123463814534   -8.34643999376064   -2.85280256875165
H         -14.97766792643180   -6.08479447157688   -3.40023902119234
H         -17.31793943235317   -5.41839948348025   -4.00293163937361
H         -20.55663301212359  -10.71149934406135   -3.47480460889423
H         -20.46781451362289   -7.70230826803483   -4.10488456241801
