121
 SCF done       -212.291362952623          0.000464805558
C          -1.08030727145813    0.00731344364975  -11.90202999230221
O          -0.96540302902646   -1.37926362777537  -11.68159207120730
C           0.26556304769550   -1.85427813048512  -11.45204317006310
S           1.68187048703919   -0.85399042648881  -11.40284993444681
C           2.71034006690221   -2.23232360075425  -11.08206018625055
C           1.95073125031247   -3.38848335572577  -11.00113463238607
C           0.56449414825311   -3.17710766496074  -11.21723616011271
O          -0.40424973410386   -4.14962972291513  -11.25083678936474
C           0.00314629554715   -5.33345553699638  -11.91346614548976
C           0.78225878742551   -6.29247267905783  -11.00176146664684
C           1.71905134732358   -5.52796313597434  -10.06350728196421
O           2.54084882806164   -4.58191840050908  -10.72696025883445
C           4.10867641726000   -2.12848984210746  -10.92600511971234
C           4.81773459331622   -0.97328049636724  -11.01213895860688
C           6.21632689057969   -0.88299496684619  -10.86231885074802
S           7.19277163017984   -2.27325802073180  -10.53786651360361
C           8.67623546143128   -1.36220536891277  -10.55170795230072
C           8.41743391458765   -0.00533946566617  -10.76225696923715
C           7.02358823023602    0.26705169321628  -10.94976412058752
C           6.58673038402172    1.58169897078498  -11.17055897857108
C           7.49467679531237    2.61688020867339  -11.17939215777146
C           7.11382550570433    4.02998044198568  -11.40520322045292
O           7.93985826930226    4.91794565743297  -11.39669160703103
C           5.65120019823076    4.32240977745625  -11.64904566148325
C           8.86782877296022    2.34240623472145  -10.94560550737842
C           9.32327008525012    1.07724124574144  -10.73766694402752
C           9.88511950431867   -2.08292451687405  -10.35456461419608
S           9.84169060851413   -3.54556128655969   -9.41237464578106
C          11.52266327214074   -3.88655389665233   -9.70595442093335
C          12.07533759744001   -2.89842975666705  -10.51684709804876
C          11.16195541462552   -1.87944828608697  -10.86660619925237
O          11.44674766692377   -0.80573370636053  -11.66385865278661
C          12.75562768779372   -0.28112798572413  -11.52019048296211
C          13.79107246728022   -1.01659066336942  -12.37550041219713
C          13.58310992419561   -2.53040237170746  -12.28188941331877
O          13.36824354492220   -2.98241251593676  -10.95570978418458
C          12.07727535238186   -5.06878047134278   -9.16527038976948
C          13.35538214758351   -5.49533556976878   -9.35689774060203
C          13.91034486698762   -6.70209206509792   -8.87945271339007
S          15.29915682302305   -7.33048162109036   -9.70552705517614
C          15.33102289556631   -8.78581139665435   -8.75396369725424
C          14.31702369177996   -8.75951514068707   -7.78299099590314
C          13.52196463445765   -7.57051784113428   -7.83859684418330
C          12.53663123819627   -7.36665201892627   -6.86539709712750
C          12.28287870784815   -8.32308097002105   -5.90269368308541
C          11.22457844434232   -8.02448159731988   -4.90850414199011
O          10.53670021968292   -7.02984515881361   -4.99919886333506
C          11.04067289704392   -9.00911426329545   -3.77925845867326
C          13.03429420153306   -9.52157407599954   -5.89598275928563
C          14.03272630385193   -9.73057469097258   -6.80296971908576
C          16.29741996266032   -9.76723347547256   -9.04358924180500
S          16.44358020094543  -11.30198450547632   -8.24349610635878
C          17.81307431404986  -11.77947963153149   -9.21754760605727
C          18.12582360993300  -10.77321893967016  -10.12937730078038
C          17.28593746827041   -9.65155134249311  -10.02146957536826
O          17.37980197176010   -8.49789155333236  -10.75077760978513
C          18.70281695404208   -8.08763602231259  -11.04698188000678
C          19.28177288426777   -8.79248260100962  -12.27887810726315
C          18.90359577031006  -10.27597696433709  -12.28880702722810
O          19.12482132912544  -10.92378505291076  -11.04739094360599
C          18.38431028604499  -13.05242085928846   -9.00619263296772
C          19.46989135785238  -13.53828335414928   -9.66755364329571
C          20.05744482094181  -14.81444797266832   -9.51451427098626
S          21.10984771116494  -15.34457846674793  -10.78800190974193
C          21.36444015843507  -16.89036166204239  -10.05221786705369
C          20.68184900564297  -16.99157481112483   -8.83997514774568
C          19.94958623786824  -15.80535774336922   -8.51538051346995
C          19.29072803978631  -15.73587607313892   -7.27728999191983
C          19.29776918934776  -16.81985322458104   -6.42672682764285
C          18.61745818136026  -16.81217868069232   -5.10903229513107
O          18.68462750266204  -17.76137966095998   -4.35855698546509
C          17.82993029975994  -15.57558119304768   -4.74146416360932
C          19.98458222687178  -18.00739255868214   -6.79343258756289
C          20.67457011115919  -18.09681106117896   -7.96219490642305
C          22.15759549622467  -17.86112449739937  -10.64807462956867
N          22.81107267875066  -18.67380814612567  -11.13419841598433
H          -2.13853831528813    0.20032731925980  -12.06297179095631
H          -0.50666929763178    0.31400246881393  -12.78260390594610
H          -0.72502463133500    0.57306256870703  -11.03471067186744
H           0.61371298858631   -5.07341696798361  -12.78776508342296
H          -0.91788909890423   -5.80762266841931  -12.26084944552689
H           1.35194366289339   -6.97956621809524  -11.62775245007990
H           0.09460315864293   -6.86996810314554  -10.38353290024749
H           2.41351278618119   -6.22088610650643   -9.58227900039196
H           1.13098821691443   -5.02213767906351   -9.28815317110326
H           4.61620767721195   -3.06290090116094  -10.72577905695275
H           4.28393025767166   -0.05497487409841  -11.21859415708890
H           5.53434277845972    1.76006345071351  -11.32108824434489
H           5.30014604314809    3.78406520485596  -12.52651778798129
H           5.52494719613008    5.39023823973747  -11.80859408366680
H           5.05929391739113    4.01657813473185  -10.78915474995302
H           9.54251601712972    3.18504126236989  -10.93151530553201
H          10.36544672050374    0.89274069886112  -10.54637003443605
H          13.05354352683899   -0.31822180573995  -10.46444726450314
H          12.68708177708392    0.76513594057999  -11.82978108507673
H          14.78511837747336   -0.74445257796132  -12.02015692738247
H          13.69808124602014   -0.72310072199709  -13.42120051692889
H          14.47672001559081   -3.05693578422608  -12.62725521107257
H          12.73560343425205   -2.82789742704069  -12.91170178616919
H          11.38037805317947   -5.67618040754980   -8.60718835892225
H          13.99645594358446   -4.90871857080479   -9.99948533307880
H          11.97720181201983   -6.44622701358369   -6.82313620515524
H          11.97684904699135   -9.15306159024467   -3.24486842868468
H          10.71162122383323   -9.96838285373954   -4.17388306331543
H          10.28643567859082   -8.62941738821896   -3.09473670573888
H          12.83158612064218  -10.28050780481570   -5.15781091372015
H          14.61492714363313  -10.63722617395207   -6.76580376858375
H          19.34488036031632   -8.27064728655195  -10.17611975450121
H          18.64243294145334   -7.01024475851071  -11.21750563246900
H          20.36565756944361   -8.67741870797057  -12.26300534420508
H          18.89396032894219   -8.34187025401773  -13.19262904210775
H          19.52267304891722  -10.81556852938184  -13.00994044833021
H          17.85095533345797  -10.38807278250489  -12.57694752103671
H          17.86267128589211  -13.66228857628846   -8.28440125014451
H          19.90844670290630  -12.91653574177078  -10.43526389652979
H          18.81083307122096  -14.81775083846269   -6.98764484587804
H          17.05211352052921  -15.38881345156098   -5.47863403173836
H          18.48690200974523  -14.70966827964538   -4.69587376580334
H          17.37184509197670  -15.72587286334261   -3.76722307226285
H          19.95549689880642  -18.83141168593488   -6.09702545445485
H          21.22317910509204  -18.98620920529559   -8.23281581298220
