50
HexamerDFTdata/HexamerOutputs/46-47_AB3.log	Energy: -3985172.6966821
C         10.89255        0.60499        0.00014
S          9.75441       -0.71971       -0.00014
C         10.24232        1.80975        0.00019
S         10.60578        3.50491        0.00039
N          8.81248        3.89377        0.00035
N          8.11994        2.84656        0.00028
C          8.81571        1.66634        0.00016
C          8.35566        0.34308        0.00003
C          7.02821       -0.14341        0.00007
S          5.62398        0.91639       -0.00004
C          6.57875       -1.48445       -0.00002
N          7.23416       -2.65140       -0.00002
S          6.06540       -3.81768       -0.00027
N          4.70510       -2.88313       -0.00032
C          5.13706       -1.62187       -0.00019
C          4.44221       -0.38120       -0.00023
C          3.05684       -0.15464       -0.00019
S          1.89529       -1.50805       -0.00025
C          2.35551        1.05904       -0.00010
S          2.71143        2.74388        0.00001
N          0.93148        3.12512        0.00011
N          0.24289        2.07169        0.00009
C          0.95074        0.90107       -0.00005
C          0.49484       -0.43589       -0.00012
C         -0.81875       -0.91190       -0.00013
S         -2.23607        0.14179        0.00009
C         -1.26757       -2.26057       -0.00016
N         -0.60211       -3.41536       -0.00022
S         -1.75571       -4.59873       -0.00015
N         -3.12331       -3.67177       -0.00009
C         -2.70775       -2.40560       -0.00007
C         -3.40951       -1.16601        0.00004
C         -4.79873       -0.95014       -0.00002
S         -5.46907        0.69829       -0.00023
C         -5.85523       -1.87669        0.00029
S         -6.10748       -3.58627        0.00047
N         -7.87498       -3.35191        0.00065
N         -8.19787       -2.12903        0.00053
C         -7.13279       -1.26340        0.00036
C         -7.13357        0.14249        0.00008
C         -8.22651        1.03180        0.00005
S         -9.90223        0.51867        0.00008
C         -8.20205        2.44972       -0.00013
N         -7.19322        3.32454       -0.00021
S         -7.90921        4.81199       -0.00039
N         -9.49720        4.40409       -0.00015
C         -9.52513        3.05679       -0.00012
C        -10.54941        2.10913        0.00005
H         11.95229        0.39410        0.00013
H        -11.61845        2.26564        0.00013
