171
 SCF done       -269.599209292222          0.000248883522
C           4.39923512193509   -4.97619967248666    1.53920851858661
N           5.48443309195165   -5.28070040065419    0.63270651913358
C           5.51533762208216   -4.38848137859636   -0.51326732600008
C           6.70276100344406   -5.54181983294851    1.23396689091350
S           7.07405073399766   -5.01024030841926    2.86040090373087
C           8.64710669115036   -5.76745179793144    2.79025973801023
C           8.85627420975557   -6.35665366535695    1.56081228677063
C           7.75421965447516   -6.23349080090983    0.68756278888820
C           7.74465474532274   -6.87986289210635   -0.66310073867289
C           8.66717927025288   -8.10094334678210   -0.63505331772464
H           8.70674084921449   -8.54147282538047   -1.64010476670932
C           8.18488167027308   -9.21896828456437    0.28210645704555
O           8.95437782515842   -9.91092616839638    0.90073785373052
C           6.69529749866273   -9.43502167068548    0.34253928570366
C          10.07162250077300   -7.63764042203221   -0.23524417715044
C          10.09156664551075   -7.12769441866775    1.20745779453042
C           9.52897514594144   -5.76214747969016    3.90504555806930
C           9.28729477903609   -5.11859272612190    5.06904769121442
C          10.12411177192459   -5.10332334450978    6.22071187322342
S           9.89627818324842   -3.81286405460956    7.37296929205175
C          11.18575831737938   -4.40957473964477    8.38020895619386
C          11.73485889419750   -5.56237140402496    7.84214343296675
C          11.13452196877176   -5.95599130043917    6.63335225935620
C          11.54318974266614   -7.21499651470033    5.93373234948089
C          12.18911198661819   -8.18219057721857    6.92768487455502
H          12.57541285480979   -9.04824442101157    6.37363292407939
C          11.23111426020311   -8.76627409350168    7.96092337576153
O          11.61148810829983   -9.09051235480575    9.05839874639991
C           9.80125383733331   -8.95401045850142    7.52741801436295
C          13.35490722255055   -7.47101017247069    7.62021250103141
C          12.83894329443004   -6.33256232799938    8.50040066551927
C          11.59141217571086   -3.74198123773789    9.56595663246232
C          11.06563508464428   -2.57062421670368    9.99386146219470
C          11.46495163186187   -1.80584301558563   11.12311723314445
S          10.94220900419140   -0.14927014034953   11.18366180335509
C          11.83110208532039    0.15470585577674   12.65281671448436
C          12.48270507376996   -0.99999461042373   13.06671180144041
C          12.25893317284557   -2.10127846305597   12.22203129345141
C          12.78111633748165   -3.46936710172533   12.53282023309239
C          13.16909089175875   -3.58825306257430   14.00701939120024
H          13.70400816775157   -4.53258722508821   14.16194831986664
C          11.93722733116180   -3.62225391546586   14.90215200439579
O          10.81698460130047   -3.51830320466400   14.47553225176972
C          12.22562113342528   -3.81189632003982   16.37288628017950
C          14.09269805048133   -2.42240845501016   14.36959365750912
C          13.34494793443996   -1.09284527251224   14.28890664351535
C          11.77309573156611    1.48825254304855   13.14458552334490
C          12.36751543426322    1.99377869435462   14.25161804687806
C          12.38393004695449    3.34877168279003   14.68807814342543
S          13.38981062348576    3.67947549012996   16.07493862552811
C          13.05190807214138    5.38513328495551   16.00210674205899
C          12.15565455046959    5.65412688060091   14.98110084488583
C          11.79183948395473    4.51883026129653   14.23288990016808
C          10.85079299800729    4.58670504593477   13.06873388638863
C          10.40548377771406    6.01336904664087   12.73951713488971
H           9.46377338807565    5.97887518468076   12.18061732439103
C          11.41515894414220    6.69004996012513   11.82513297779445
O          12.40348542078345    6.17965190878290   11.37070567706331
O          11.04886672964727    7.95118524287851   11.55705295878578
C          11.91122568070005    8.68310819553719   10.69787017493786
C          10.20693448683123    6.83899740612594   14.01172722654695
C          11.54495801726707    6.99641794619605   14.72760218121508
C          13.73352136819702    6.23516444750531   16.91932365432692
C          13.96985053009231    7.55371942957455   16.73165730396917
C          14.70145976755870    8.42064377478791   17.59248981971401
S          15.32855295511701    9.88155276047417   16.89106679779109
C          16.06873141286637   10.36759461631121   18.39293324290567
C          15.81963675331058    9.42624569328647   19.37933887196768
C          15.04320830459686    8.34080336157572   18.93225234154478
C          14.57787828267468    7.25794555531949   19.85388460302527
C          14.62640910092476    7.72991180281670   21.30762518665188
H          14.42687639437906    6.87928405076713   21.96947508545682
C          13.55056100696747    8.77288226975093   21.58155540825843
O          12.80837899869606    9.18279224880905   20.72714117083062
C          13.47284451861328    9.24737653434167   23.01277930561709
C          16.02701434952524    8.27565063959890   21.60276140008689
C          16.30144620861861    9.54186310073555   20.79280531519961
C          16.78517397269647   11.59692182736358   18.35935009123319
C          17.42230561353771   12.24180136896941   19.35921279835489
C          18.16276063272288   13.45625352389852   19.16305751883122
S          19.65681938962651   13.63455226504993   20.04199648796277
C          20.02588070961839   15.12133578261150   19.21267230852564
C          19.01165509352692   15.46328170504423   18.33767485785226
C          17.94930841376054   14.53484905254268   18.32956384122650
C          16.69700303518281   14.83292010425851   17.56234262288018
C          17.06580450474342   15.59461507052360   16.28805443597383
H          16.15421347709318   15.81977065904396   15.72252493699764
C          17.93677161554767   14.73829739874856   15.38146824103362
O          18.87860114250658   15.13224159617043   14.74705788977053
O          17.50511128297250   13.47221077395411   15.35081101120582
C          18.23775553531787   12.57150921738151   14.53132480854784
C          17.76842783963520   16.89851399040388   16.66585793012843
C          19.07936758894038   16.63877638887453   17.41201084297321
C          21.23921287960912   15.82739764160868   19.45176065886901
C          22.18805960083800   15.44991500426952   20.31796093904058
C          23.43673753021611   16.22551953497728   20.53211807509194
F          23.58738451341628   16.60839927886294   21.81850700846524
F          24.54378044251766   15.50978087182524   20.24019996098575
F          23.51161883096134   17.34614771562321   19.79812380117671
H           3.46439735595542   -4.98620903332304    0.98003961738217
H           4.51683543294989   -3.99393335527467    2.01594537721794
H           4.35524486410260   -5.73635937942665    2.31713359484473
H           4.60178743392166   -4.52890103063187   -1.09115516551906
H           6.37046910649886   -4.62176284969050   -1.14074667346563
H           5.58058930395038   -3.33608354279012   -0.20783919613812
H           8.12923213385847   -6.18262650454810   -1.41611119647020
H           6.72423083979710   -7.13817503676895   -0.94735686102337
H           6.23992871636814   -8.61592555076589    0.89638443541676
H           6.48407379241466  -10.36910658181437    0.85702340678481
H           6.26560985705105   -9.45728062342135   -0.65554818589106
H          10.38557544510834   -6.84489814746579   -0.91736878857658
H          10.77528239667474   -8.46552278519561   -0.32803114964860
H          10.97745425231198   -6.50629469537698    1.36337355278719
H          10.16907153917387   -7.98387065956241    1.88395209486848
H          10.45300164283138   -6.29759725046853    3.75561025564135
H           8.38906199514838   -4.51694279389011    5.14344428467653
H          12.28057654247347   -6.97899150938259    5.15843064967988
H          10.68380598839806   -7.66809232673171    5.43876052410175
H           9.32838075266323   -7.97992504872362    7.41516167477091
H           9.26509152667211   -9.52195612516483    8.28360118482101
H           9.75116462777816   -9.47321168822384    6.57347823487418
H          14.03108677460683   -7.07848093436554    6.85797811402450
H          13.90796295900855   -8.17849553759039    8.23862969508550
H          13.66462268459711   -5.66079616595500    8.74946635387268
H          12.46171721598018   -6.74990979211115    9.43885062241585
H          12.39757432336187   -4.21353574151526   10.10322041251709
H          10.29107735744301   -2.11534777802422    9.38746950997934
H          13.66092519830641   -3.68397547342517   11.91734596147509
H          12.00869572804004   -4.20541005915039   12.29889581115490
H          13.06941095727286   -4.47756274446695   16.53027046497537
H          11.34202779887280   -4.20369698789996   16.87031900997885
H          12.46094750387343   -2.84577940370513   16.81626465835303
H          14.92398534698370   -2.41443636432949   13.66090320289363
H          14.50940175460152   -2.54938892822554   15.36981010592664
H          14.07426315916556   -0.27876264926120   14.28303135289518
H          12.71092828211925   -0.96699982140933   15.17293861222952
H          11.19099456947100    2.14315077092898   12.51623018138664
H          12.93133164692329    1.33725531823209   14.89541596602758
H           9.97317754888667    3.97006124264758   13.28334947977664
H          11.35084927808034    4.17820205261595   12.18671552169665
H          11.50587473111534    9.69018668375851   10.64504657641747
H          11.93449151264930    8.22668491702963    9.70632638664412
H          12.92640140275181    8.69714772434404   11.10012171514888
H           9.49770791922417    6.32332544296160   14.66238689819736
H           9.80006423830404    7.81899583694919   13.76157190650994
H          11.40868305301326    7.52278255604822   15.67534984269832
H          12.21478772083918    7.59796606508609   14.10443886766801
H          14.15990630162409    5.72902872785375   17.77234556495189
H          13.65865826417222    8.01302057537440   15.80541552345106
H          15.21345970550687    6.37328566049061   19.74627981749400
H          13.55545272084513    6.97923433368650   19.58936177543396
H          13.66032243074830    8.43616939070609   23.71041256620255
H          12.49512144313051    9.68382922277882   23.20041953722549
H          14.22340711984606   10.01942191612858   23.17354470701667
H          16.75387997910841    7.50680927714042   21.33128769361007
H          16.14795296804147    8.48626593989228   22.66623030812591
H          17.37625736929609    9.74117756226292   20.79735366517606
H          15.80331450435703   10.39945811582146   21.25730553223805
H          16.82698115817464   12.03618303839407   17.37135058734291
H          17.49427411498625   11.81702156005914   20.34757905024762
H          16.05672996851335   15.47255382128754   18.17945463047632
H          16.13436209198472   13.93399552608325   17.33070162794161
H          17.69823105618643   11.62802849396210   14.56041943757769
H          19.24975925263147   12.44593558379247   14.92143683207124
H          18.29840324936168   12.95127418401080   13.50979123603503
H          17.09091638863429   17.48171763974887   17.29262925381546
H          17.98434535263429   17.47716198764299   15.76724173089657
H          19.36983148436520   17.53786396509617   17.95976164167771
H          19.86425567663832   16.43421883399535   16.67744876833043
H          21.38006097564692   16.73105211795853   18.87377280083582
H          22.11016104919386   14.55741322790385   20.91885191780719
