59
HexamerDFTdata/HexamerOutputs/47-50_AB3.log	Energy: -3388549.3687650
C        -10.34168        2.07093       -0.00021
S         -9.76980        0.45980       -0.00016
C         -9.27685        2.97278       -0.00024
N         -9.19031        4.31745       -0.00033
S         -7.58634        4.65009       -0.00035
N         -6.93721        3.13824       -0.00022
C         -7.98446        2.30220       -0.00018
C         -8.07356        0.88978       -0.00009
C         -6.99949       -0.04927       -0.00002
S         -5.32161        0.53987       -0.00006
C         -6.98988       -1.43003        0.00013
C         -8.00336       -2.51728        0.00019
O         -9.22411       -2.40977        0.00017
C         -7.20396       -3.77801        0.00028
C         -5.87943       -3.48981        0.00030
C         -5.69993       -2.03211        0.00018
C         -4.65587       -1.11750        0.00012
C         -3.24138       -1.30147        0.00013
S         -2.15648        0.06789        0.00018
C         -2.46629       -2.49228        0.00009
N         -2.77995       -3.79370        0.00005
S         -1.34868       -4.60621        0.00001
N         -0.28674       -3.35073        0.00003
C         -1.03511       -2.24268        0.00008
C         -0.67848       -0.87158        0.00013
C          0.62909       -0.31728        0.00010
S          2.04640       -1.39709       -0.00010
C          1.05941        1.00117        0.00017
C          0.43719        2.35025        0.00038
O         -0.75418        2.63436        0.00042
C          1.59270        3.30221        0.00053
C          2.75832        2.61244        0.00037
C          2.46640        1.17132        0.00016
C          3.17909       -0.01951        0.00003
C          4.58197       -0.25561       -0.00003
S          5.75996        1.02952       -0.00006
C          5.26991       -1.49435       -0.00011
N          4.84085       -2.76163       -0.00014
S          6.19929       -3.68776       -0.00021
N          7.36775       -2.52833       -0.00023
C          6.71379       -1.35833       -0.00015
C          7.16486       -0.01817       -0.00011
C          8.50598        0.46203       -0.00014
S          9.86610       -0.69517       -0.00032
C          9.01438        1.74871       -0.00004
C          8.49666        3.13791        0.00021
O          7.33156        3.51934        0.00030
C          9.72330        4.00331        0.00030
C         10.83582        3.23471        0.00011
C         10.44317        1.81827       -0.00010
C         11.04578        0.59892       -0.00025
H        -11.40258        2.27665       -0.00020
H         -7.66129       -4.75964        0.00034
H         -5.05912       -4.19422        0.00036
H          1.46498        4.37738        0.00071
H          3.75053        3.04878        0.00042
H          9.66866        5.08500        0.00048
H         11.86143        3.58729        0.00011
H         12.10015        0.35302       -0.00030
