140
 SCF done       -256.358485790502          0.000362554776
C          13.38446386594170   10.26013057428950    0.35414684538610
N          12.53438189576732    9.79220717661271   -0.72377515355274
C          12.69920791375637    8.39279288778421   -1.03284140117930
C          11.29381095110941   10.33505429762482   -0.88784238662578
S           9.89537080247970    9.32750526773616   -1.09331451561603
C           8.80916712816515   10.69218969436739   -1.15942828736955
C           9.53002774949019   11.88041538097502   -1.05651121683848
C          10.94571956863746   11.68677500657771   -0.91763509145221
C          11.80739425518923   12.80751693418139   -0.91162957618609
C          11.28855481956266   14.06524416795009   -0.98889076501737
C           9.89326641291609   14.23379401035516   -1.08886026999932
F           9.41790323983926   15.49792742293466   -1.16219057591671
C           9.01887358514013   13.19277207281348   -1.14230298950779
C           7.41027939680433   10.52188054154662   -1.30575719141423
C           6.80960511984545    9.32014094942264   -1.46642894666081
C           5.42889906248782    9.06088098567698   -1.78405914366008
C           4.73442920176834    9.96732090464312   -2.59789243173105
C           5.17505264782358   11.19009124307467   -3.19992052354998
C           4.21458090463712   11.82637049049391   -3.89694698513867
S           2.69674550900495   10.99123705860850   -3.92029223017738
C           3.39865644435007    9.68953352882421   -2.99210258063279
C           2.80733536705163    8.48904404229349   -2.73484809752602
C           3.51064158602559    7.52014722028359   -1.99685828787484
C           4.79250159545970    7.82549144574821   -1.41611207786996
C           5.33356976036898    6.87109657021901   -0.51719674470694
C           4.74100409996919    5.61082981979426   -0.40468659036183
C           3.55072437277265    5.30507931441581   -1.10718491342502
C           2.91502833338509    6.25634112873771   -1.84999017352440
S           3.03929202586661    3.65981825373635   -0.83717382645087
C           4.40270049001717    3.39729268543426    0.20163417890973
C           5.19156906198415    4.47835370575927    0.34865781821417
C           6.57905330331185    6.93973484002109    0.29372673866794
C           7.73373111418220    6.49499860242403   -0.34018144363924
C           7.92086204250364    6.19943472321574   -1.73222657241269
C           9.17017331385943    5.79660832395830   -2.02261554826888
S          10.22017204960207    5.71632704529983   -0.64118497975435
C           8.91702546934526    6.24016754002849    0.39763626265622
C           8.91559651882071    6.27959001971014    1.76045530694908
C           7.72443730093536    6.60681343796669    2.43450623492985
C           6.55208707736817    7.02822789107654    1.71396463185309
C           5.38692988833587    7.37800918549303    2.46148698773445
C           5.32924865435734    7.04361082609436    3.81001825271631
C           6.49768792096649    6.58847936561904    4.48058973174646
C           7.68560622684413    6.43526720726809    3.82907120469390
S           6.20302274474707    6.29309228730366    6.17346811267047
C           4.53197921139465    6.70611797495602    5.96365640411462
C           4.21722171698559    7.07656492502460    4.70998170183851
C           4.22480506611262    8.02645069449532    1.80892726901204
C           3.08854017306315    7.27533408196136    1.54088471497215
C           2.78957950604196    5.93372747639305    1.93540152683987
C           1.57921187492338    5.51955319386106    1.51457570314146
S           0.72202903108660    6.69795720007193    0.57556395235839
C           2.03254946396297    7.82949281929109    0.76790534212668
C           2.12836598210053    9.07237080406821    0.20859228570789
C           3.24907919673033    9.86854773159590    0.50243894050097
C           4.24871980188791    9.39455852429858    1.41840950499260
C           5.19525689420050   10.33491748762885    1.90914396941596
C           5.36943495009723   11.53419255142442    1.23629012311664
C           4.47117079606028   11.90005300519169    0.19849806994828
C           3.38146827945354   11.13453157687734   -0.09990014008526
S           4.88018274052337   13.45944262589621   -0.47373834375055
C           6.21332840699625   13.60536277203787    0.63270199352749
C           6.34712165508202   12.55365592146303    1.46315132791689
C           5.92068299281429   10.10936450983048    3.17819708070805
C           7.25778163047466    9.75019418920144    3.15833336657911
C           8.13086956120958    9.65196864703646    2.03103298161934
C           9.39208846180603    9.33266781851578    2.37094540003675
S           9.61677361414603    9.07453809342362    4.07359976344306
C           7.93445209893511    9.43515365118065    4.36647924479761
C           7.27144856686699    9.38878382399433    5.55811200234140
C           5.93305487483426    9.82281557806897    5.61379196029165
C           5.27347241303696   10.30880389553718    4.43218418719211
C           4.06466014645151   11.04435686610900    4.59863501476029
C           3.48881782127963   11.13980855509145    5.85680466794342
C           4.06484675850761   10.46007985998943    6.96364227735185
C           5.28067316271265    9.84909698383770    6.86068945154124
S           3.12836688601789   10.70212846310178    8.41537249448819
C           2.04007279974102   11.74851070062007    7.55811844929770
C           2.34245357938180   11.89973375895200    6.25655068040748
C           3.58529166987756   12.03299226166780    3.59466885794603
C           4.39916903481828   13.16914308668589    3.63505032396642
C           5.55812663593145   13.40038180904033    4.44746825904137
C           6.09208944074618   14.62413503024332    4.27353245522569
S           5.25741189267054   15.59760971463497    3.10943606760105
C           4.11647088040236   14.30944238750883    2.84381350173701
C           3.05315402468405   14.31421511781946    1.99190539899679
C           2.18871525927920   13.20707034565449    1.96736557840314
C           2.39330532111500   12.04972510705076    2.81109851064093
C           1.35388444444250   11.06639905746054    2.78815242554907
C           0.20306404397173   11.23578597254289    2.01775436850055
C           0.12303462323681   12.34067009046406    1.12354077665059
C           1.09040497186045   13.29595036115169    1.09593052492614
S          -1.34149611350010   12.33404982935298    0.18187627424138
C          -1.87404322364073   10.92355368891188    1.02536109727118
C          -1.00085952309226   10.46027228308208    1.94099176262428
C           1.37672029206879    9.82430432754538    3.62963390069025
F           2.58741904815954    9.30261479015276    3.81720630812594
F           0.84130818536225   10.01310979802997    4.85738704479206
F           0.67987606832327    8.79372505899670    3.11435756233001
H          13.43449244393798    9.51014054654839    1.15096222543754
H          12.99216653240006   11.18117028312012    0.77589746024478
H          14.39486499184263   10.43512068614704   -0.02036661838638
H          13.76327296599592    8.17566924902842   -1.11081026389767
H          12.22174147347739    8.17060313340908   -1.98583607731559
H          12.25891247177036    7.74291648897322   -0.26635928168765
H          12.87556541886787   12.66342585263419   -0.88339218090158
H          11.91878137927104   14.93979991628414   -0.99612790445440
H           7.96446854145629   13.37122404316508   -1.26814449096693
H           6.82872125282952   11.42697191961651   -1.23470346373887
H           7.45848876878681    8.46109226976798   -1.42926890732335
H           6.18059341591393   11.56171978929676   -3.15719024992914
H           4.29506510931463   12.75631757687484   -4.42506427103405
H           1.82141651046670    8.25914195379903   -3.10741279810298
H           1.97079098293187    6.05497160495623   -2.33069838298804
H           4.52708399431237    2.42783954298868    0.64362806078910
H           6.07782247203251    4.47693373586023    0.95770800539592
H           7.13839450491436    6.29128502415372   -2.46511320815149
H           9.56985924254636    5.52091896607159   -2.97891112996923
H           9.78555904589718    5.99591512048413    2.33209229162478
H           8.57903289271243    6.13894437225329    4.35602125716373
H           3.87887020944076    6.63395748868946    6.81135159849156
H           3.21872562289245    7.31322871512220    4.40743861366665
H           3.45383617203870    5.33074740599885    2.52816476819219
H           1.11027626741938    4.57105699536155    1.69110640449145
H           1.36311481324992    9.45037793616142   -0.45117255992111
H           2.62553393306708   11.47697413491282   -0.78911187768973
H           6.81556635519591   14.49217767052270    0.58837103342089
H           7.12717330370009   12.46925411218512    2.19834222038709
H           7.80096862709347    9.83757874804554    1.02687862054540
H          10.24067000365261    9.21537364527773    1.72652049714878
H           7.76000544377113    9.05698885546325    6.46076733119310
H           5.77377107157858    9.43433706743421    7.72596607851076
H           1.22809641198400   12.19131446610305    8.10098240405999
H           1.77469962684296   12.51561214727591    5.58173026725377
H           5.96068420165159   12.68427812757004    5.14011046333058
H           6.94889921937968   15.04043789229259    4.76683352385431
H           2.84549216112790   15.16193971902846    1.35881863451160
H           1.01142097742643   14.14622603968038    0.43650059911513
H          -2.83697566983196   10.51568112284249    0.78668398140956
H          -1.23109107724404    9.60700269489859    2.54809217071412
