195
 SCF done       -322.862150784995          0.000917395986
C          11.16119770861201  -19.71505079152187    3.50591594230243
O          11.98898123715537  -18.64035165570853    3.10639096190332
C          12.03718147826848  -17.57170869776614    3.91858411747702
S          13.05065931509526  -16.26359681695954    3.42578157750615
C          12.66170897302309  -15.29512076661819    4.83314545824379
C          11.76366953093887  -16.00262475180859    5.65098157164409
C          11.40802112466667  -17.30115699097959    5.12594382793615
N          10.55682267105052  -18.10958515745772    5.78712571805641
C          10.07562043414753  -17.66423503068285    6.92976618073592
C           9.15721687625134  -18.50509351089303    7.66779704051302
C           8.80224706703581  -19.75284988702754    7.14814915013902
C           7.93123927225652  -20.57622623617365    7.82273615559352
C           7.39930322289398  -20.15688207586391    9.03598474987001
C           7.74125668511489  -18.92910496418853    9.56000371449354
C           8.62590321785000  -18.07008926903941    8.89795791037354
C           9.00410187192716  -16.76991163956220    9.43620564919105
C           8.51669012650388  -16.29190541448197   10.65755119029313
C           8.88932521081650  -15.06005615243604   11.15085020822861
C           9.76894971723580  -14.25421897309177   10.43771208590423
C          10.26458116324523  -14.69672180329592    9.23420984710914
C           9.89536431321770  -15.94432883701013    8.72055560648179
C          10.43775016845086  -16.38066482212294    7.45540707682282
N          11.26664601759649  -15.57583069745926    6.81066384352586
C          13.23399928781888  -14.03220738278904    5.00733218078222
C          12.95291201667297  -13.21371325395458    6.07301311425156
C          13.53928564958149  -11.96591361542299    6.27836981418275
S          13.10265255930400  -11.00748018314685    7.66686916083403
C          14.20245573597857   -9.71014375139279    7.28427811648102
C          14.88938073477803  -10.01753855384483    6.08207895576503
C          14.51639078142125  -11.28032793514438    5.51811010339824
N          15.06755517990519  -11.72164945930872    4.38812462254337
C          15.96908239458102  -10.94071142622170    3.80783376563355
C          16.58665394824516  -11.38593133995081    2.57958225565006
C          16.22357611501195  -12.62106728471041    2.03409976282876
C          16.79123645836655  -13.07064851757518    0.86559526706652
C          17.73914440463511  -12.28371506322597    0.22149617968164
C          18.10754723124182  -11.06506116228046    0.74763171008072
C          17.54727539154346  -10.57951623632346    1.93523934975334
C          17.91825192093658   -9.29201734752471    2.50509818018373
C          18.86340498350260   -8.44792667153059    1.90968360781897
C          19.19064787223049   -7.22839438216773    2.46107489741253
C          18.58269391197843   -6.80143096667482    3.63630034927392
C          17.65473406368750   -7.61108845587883    4.24704910859226
C          17.31337188381167   -8.85220562909691    3.70012381186936
C          16.33412866557677   -9.68038988419528    4.36482943227921
N          15.79178381893631   -9.23879432039130    5.49178941107636
C          14.31502640889501   -8.59265039264680    8.10322853150948
C          15.22498385792651   -7.58538730382136    7.86392532796431
C          15.37523299003633   -6.44490548432127    8.63938627743698
S          16.62847195012616   -5.29729186314277    8.24505017074733
C          16.23618554497540   -4.22440644782589    9.56311649039345
C          15.14176825536867   -4.74964309209298   10.28897460665643
C          14.65529884215946   -5.99374836348782    9.77265441023343
N          13.61875410699701   -6.61497436490566   10.32793160162547
C          13.06513536596554   -6.03254580772649   11.38471209700878
C          11.92440550046685   -6.66794802061836   12.00256721882182
C          11.42598965071882   -7.85941337528492   11.46619874334925
C          10.33690002830904   -8.48361296084382   12.02623564337493
C           9.72494726540126   -7.91887495855282   13.13965340435993
C          10.20494915677825   -6.74579678728793   13.67906384989273
C          11.31322949922191   -6.08760573769641   13.13258532603123
C          11.83858408387853   -4.84768407679372   13.68496921771303
C          11.28804767495347   -4.23341188283225   14.81617754275864
C          11.80144777435449   -3.05840557431838   15.31953934318504
C          12.89088275732624   -2.44691198161798   14.70901297730795
C          13.45425300258144   -3.02659630895312   13.59712277048529
C          12.94407427785879   -4.21982254508447   13.07646251894181
C          13.56462346386827   -4.80454292303323   11.91053884734485
N          14.59290359782754   -4.17479036301571   11.35594383516072
C          16.93686658294470   -3.04900673941399    9.81065363776759
C          18.00774422585652   -2.65124724233441    9.04637499640889
C          18.77617918288538   -1.50565112043914    9.20076754500001
S          18.55219491718101   -0.26727870250349   10.40217722217157
C          19.90855531353730    0.68286421257438    9.85375520776930
C          20.51159501066664    0.06078323564867    8.74389790772149
C          19.88124053770524   -1.17334581161268    8.38450049457911
N          20.31738794303366   -1.92168717537905    7.37623366096482
C          21.35432707409116   -1.45604841519203    6.69368767515355
C          21.87704038186947   -2.24878583561627    5.60608225970864
C          21.31251954357309   -3.49982956448071    5.33708543808190
C          21.79786840736197   -4.28582365765199    4.31872046448393
C          22.86040413572007   -3.82483847337148    3.54937656011781
C          23.42367446312383   -2.59309383301450    3.80168781477779
C          22.95272857423295   -1.77026056125885    4.83164214504107
C          23.52515404147071   -0.46184004352752    5.11653898805036
C          24.56226772765181    0.08687408936598    4.35281446823423
C          25.08103062438316    1.33226721574293    4.63095670320625
C          24.58107517880933    2.08196770991585    5.68953098947835
C          23.56593526779112    1.56810991830544    6.46266496539729
C          23.03076791003822    0.30543357241177    6.19080460253266
C          21.95135861795332   -0.19796400243463    7.01082842574653
N          21.53686402250490    0.53662004364939    8.03111890696171
C          20.25778684739196    1.88021407465410   10.50614592697914
C          21.39854859886672    2.56788111391104   10.23119896593415
C          21.81661371493214    3.79979793906661   10.82373817269429
C          23.15885334603356    4.22584782147388   10.64644351066738
O          23.96641615362633    3.38392084038192    9.94877105121973
C          25.34800107507918    3.66423386876044    9.85691842926450
C          26.02778724061060    2.44379309169236    9.25443521550267
C          23.57148696889819    5.42582509030044   11.19000484933305
C          22.71043299143863    6.24638411456686   11.92601177557997
C          21.36908864350651    5.82173876942407   12.10185218653534
C          20.95346365247688    4.62381835348441   11.55688300538010
O          20.56331340549280    6.65605125694703   12.81537705083472
C          19.21807358133680    6.29120903518281   13.04581605488596
C          18.57932967410069    7.39784889520478   13.87105138791491
C          23.12552034440255    7.49534302775138   12.50866523641557
C          24.37749733220380    7.99440450106892   12.52618434715620
C          24.78415407598315    9.24100874342271   13.12493893608577
C          26.16294712079531    9.57924959707584   13.14138535302165
O          27.00407189092338    8.66378478712101   12.58324122898506
C          28.38555389919333    8.93702838317634   12.47055518556584
C          28.70469982973447    9.91689442117123   11.34473766747496
C          26.57373806621462   10.75975863916862   13.72976000415681
C          25.66697396746393   11.65421666722740   14.30905541682379
C          24.29828698176415   11.33028360559727   14.26979670469298
C          23.88594732799757   10.14543577755959   13.69212858895009
O          23.35889153158277   12.17299351606385   14.82984001503559
C          22.96588431418501   13.26604089518434   14.01441575509944
C          22.11994705130547   12.84229775890042   12.81851230222062
C          26.09065016799764   12.86681619670151   14.96806305594161
C          27.29824674488775   13.44953390532176   14.86759957718673
C          27.61143511712107   14.62838572173272   15.55728157100967
N          27.88035025193939   15.59774521877015   16.11249099865930
H          10.12069758629818  -19.39468197358331    3.59125374805027
H          11.48571471113952  -20.12083864375566    4.46646985225066
H          11.26226948392186  -20.46630391916186    2.72494607048026
H           9.23177798470564  -20.04881234953243    6.20377755609870
H           7.66207341013104  -21.53908139032618    7.41474596854467
H           6.71348970977599  -20.79531038072436    9.57356566207497
H           7.30767119987729  -18.63848710339175   10.50334729708895
H           7.83381401193327  -16.88936886480352   11.23992734335186
H           8.49469053131952  -14.72243375156124   12.09807325418766
H          10.06194285163936  -13.29054802523005   10.82645499078507
H          10.95028226907556  -14.09271032839570    8.66206615675222
H          13.93536974853738  -13.68901044336909    4.26198338634025
H          12.23711752356295  -13.55584768910244    6.80533956537573
H          15.48599610183045  -13.21076461347840    2.55469811843989
H          16.50393826632243  -14.02535672300597    0.45131971985823
H          18.19069935745856  -12.62765386151568   -0.69767070523227
H          18.84542011300817  -10.48281457653082    0.21931303633411
H          19.35446692467498   -8.74369878478006    0.99642420134905
H          19.92135110234924   -6.59991431196318    1.97236389919379
H          18.83336287397290   -5.84174294582908    4.06314171704552
H          17.16851752418945   -7.30251401492929    5.15853064787889
H          13.67190628707889   -8.52102567723255    8.96770887503249
H          15.88150418210212   -7.69523631633783    7.01348515453157
H          11.91759147233888   -8.27144316707016   10.59942900511110
H           9.95731254593435   -9.40215379408408   11.60432541660148
H           8.86660158632288   -8.40027244690608   13.58537192342432
H           9.70267059147410   -6.33636942754641   14.54086873416045
H          10.44354604387570   -4.67844336931123   15.31763195280010
H          11.35316418925934   -2.61115170392775   16.19483332517181
H          13.28971643966932   -1.52601365940260   15.10755318567584
H          14.30112004112824   -2.58141508290923   13.09905699750387
H          16.60429829407019   -2.44981409414829   10.64711963962294
H          18.31866036660864   -3.28323598807037    8.22278045380375
H          20.49221190826544   -3.82619947996723    5.95704838852442
H          21.36503390226970   -5.25511690606597    4.12052055921980
H          23.25051529501895   -4.43616387162695    2.74840495354823
H          24.24823685227527   -2.27219147968804    3.18518791707684
H          24.97115857136104   -0.46286639169918    3.52023524821937
H          25.87844985607244    1.72832574007184    4.01902741533130
H          24.98418009565192    3.06280542138582    5.89598117209057
H          23.15525337140749    2.12574671502823    7.28985203642460
H          19.57653961716832    2.21177982553524   11.27888452349372
H          22.07782690738836    2.13662049398198    9.51203290111804
H          25.75977358127227    3.86716982380390   10.85496687751388
H          25.51283693875536    4.54720684502302    9.22260025801262
H          25.87109433313898    1.58078646110391    9.89576184439839
H          27.09422705199335    2.62624619276686    9.15637655440524
H          25.60981101852100    2.22345227888607    8.27650848817489
H          24.58433400611136    5.76139161431973   11.04443001752448
H          19.93135242898598    4.30345545736814   11.67020173698336
H          19.17325385786491    5.33813724251108   13.59092340927738
H          18.68731012366217    6.17683092160804   12.09033152367665
H          19.11293307608425    7.51557944613149   14.81027137595294
H          17.54178340992044    7.15252426343290   14.07830715050644
H          18.62146051743548    8.33801402324014   13.32773905757395
H          22.32499078317594    8.04074291687246   12.98511867280114
H          25.18789677472711    7.43917704219677   12.07875551837651
H          28.83302266418987    7.96364530365223   12.24925281093767
H          28.79317658737174    9.28821713035400   13.42642180858945
H          28.33269062296676    9.52692383700749   10.40062754248973
H          29.78028406033220   10.05224208471723   11.27144786687827
H          28.23760451640341   10.88257686243121   11.52168988017091
H          27.62288418230041   11.00030427071075   13.78520760518684
H          22.83108140214818    9.92416809243472   13.69314635244875
H          23.85019820789491   13.81912327974470   13.66638087537529
H          22.38626200451411   13.91090020343714   14.67976229333839
H          22.69831825346170   12.21117496662611   12.14668904181153
H          21.78985567472924   13.72385948454435   12.27599625100788
H          21.24795465726054   12.28749043423984   13.15559147760539
H          25.34228744383830   13.33240966048319   15.59791041246841
H          28.08965105562057   13.05739314923091   14.24273792768128
