47
	Energy:       0.0000000
  S       -7.03650       -1.42236        1.65349
  S       -7.71790        0.67774       -1.99356
  C       -6.59960        0.10995       -0.74098
  C       -7.31602       -0.59781        0.22431
  C       -8.74997       -0.69197       -0.06538
  C       -9.12855       -0.04869       -1.22816
  S       -9.45460       -1.57670        1.17066
  S       -3.99283       -0.72763       -0.14583
  S        1.18949       -2.98435        0.27741
  S       -1.21655       -2.97472       -0.27794
  C        0.70553       -1.38584        0.16683
  C       -0.72113       -1.37975       -0.16619
  C       -0.02037       -3.80115        0.01340
  C       -8.35511       -1.93534        2.09837
  S       -8.54900       -2.72159        3.33050
  S       -0.02541       -5.27697        0.01931
  C       -2.60929        0.28749       -0.60986
  C       -3.07905        1.43582       -1.24428
  C       -4.54025        1.50569       -1.33966
  C       -5.19686        0.40230       -0.80140
  S       -2.46350        2.83357       -1.92794
  S       -4.92326        2.93677       -2.11975
  S        0.00270        1.10370       -0.00594
  C        1.26241       -0.11464        0.29059
  C       -1.26717       -0.10486       -0.29959
  S        4.93676        2.87300        2.16672
  S        2.47650        2.78448        1.97874
  S        3.98598       -0.74267        0.11712
  C        5.19479        0.36271        0.79664
  C        4.54414        1.45592        1.36846
  C        3.08401        1.40281        1.25655
  C        2.60784        0.27044        0.59793
  S        9.46011       -1.54241       -1.22823
  S        7.03723       -1.40471       -1.69610
  S        7.71115        0.58878        2.01875
  C        9.11598       -0.08208        1.21347
  C        8.75297       -0.71108        0.04422
  C        7.31141       -0.62691       -0.24150
  C        6.59724        0.06468        0.73566
  C        8.36335       -1.86660       -2.17300
  C        3.64987        3.54280        2.48288
  C       -3.63251        3.60453       -2.41808
  S        8.57062       -2.58810       -3.44425
  S        3.54602        4.83206        3.19984
  S       -3.52646        4.91984       -3.07716
  H      -10.12618        0.00984       -1.62407
  H       10.11520       -0.00399        1.60334
