57
	Energy:       0.0000000
  C        9.14077        0.10622       -0.00093
  H       10.18178        0.39764       -0.00114
  C        8.62444       -1.17752       -0.00099
  C        7.17996       -1.18782       -0.00064
  C        6.60486        0.09756       -0.00027
  C        5.22211        0.44172        0.00021
  C        4.66124        1.73301        0.00033
  C        3.22779        1.73691        0.00064
  C        2.65924        0.44402        0.00079
  S        3.94229       -0.75903        0.00102
  S        7.89090        1.28922       -0.00044
  C        1.28295        0.10742        0.00096
  C        0.71593       -1.18649        0.00125
  C       -0.71594       -1.18648        0.00112
  C       -1.28295        0.10743        0.00076
  C       -2.65925        0.44403        0.00035
  C       -3.22779        1.73693       -0.00002
  C       -4.66125        1.73304       -0.00028
  C       -5.22212        0.44174       -0.00019
  C       -6.60487        0.09756       -0.00031
  C       -7.17996       -1.18782       -0.00030
  C       -8.62442       -1.17756       -0.00070
  C       -9.14080        0.10616       -0.00106
  H      -10.18182        0.39757       -0.00154
  S       -7.89095        1.28919       -0.00025
  S       -3.94230       -0.75901        0.00011
  S        0.00000        1.31093        0.00111
  N        6.47354       -2.34871       -0.00068
  C        7.19538       -3.44786       -0.00103
  H        6.66287       -4.39731       -0.00105
  C        8.62991       -3.43826       -0.00142
  H        9.16677       -4.38620       -0.00164
  N        9.34882       -2.34083       -0.00136
  N        5.37487        2.88937       -0.00013
  N        2.52065        2.89334        0.00051
  C        3.23595        4.00083        0.00001
  H        2.69558        4.94547       -0.00001
  C        4.66278        3.99767       -0.00029
  H        5.20596        4.94099       -0.00069
  N       -1.42607       -2.34152        0.00112
  N        1.42607       -2.34152        0.00131
  C       -0.71277       -3.45059        0.00122
  H       -1.25572       -4.39381        0.00120
  C        0.71276       -3.45059        0.00126
  H        1.25570       -4.39382        0.00132
  N       -2.52066        2.89337       -0.00005
  N       -5.37486        2.88941       -0.00061
  C       -4.66276        3.99771       -0.00068
  H       -5.20595        4.94103       -0.00090
  C       -3.23595        4.00088       -0.00046
  H       -2.69559        4.94553       -0.00033
  N       -9.34879       -2.34088       -0.00094
  N       -6.47350       -2.34869       -0.00018
  C       -8.62985       -3.43829       -0.00080
  H       -9.16670       -4.38623       -0.00102
  C       -7.19532       -3.44786       -0.00043
  H       -6.66279       -4.39729       -0.00040
