81
 SCF done       -179.913360416228          0.000845171450
N          26.52719014142538    5.03726642094717    0.64237116524986
C          25.84776538315760    4.00423846589293    0.08123079745323
C          26.24888354997971    3.24881136768312   -1.01464658550850
C          27.50355789485919    3.52759795026625   -1.77770393829658
C          25.35197040339829    2.22126887672538   -1.29482237911844
C          24.26246540246587    2.15456813310128   -0.44084691812023
S          24.36275815848209    3.43613201881150    0.75800085780965
C          23.18518841538007    1.25506031938546   -0.41616716970714
C          23.01217656143312    0.22949803358958   -1.30095119786481
C          21.93568194171154   -0.67075180435044   -1.24768156801147
S          20.69679450618132   -0.55799248555595   -0.02949033171911
C          19.83121912795331   -1.95874887758935   -0.63803339607578
C          20.48918624677297   -2.46067029216334   -1.73866523623031
C          21.66145811282984   -1.75381931672778   -2.09321248430994
N          22.42807840212080   -2.14241146051553   -3.21392844422514
O          23.45924808002821   -1.54546827302962   -3.46542124519131
O          21.99360283572675   -3.07108532663255   -3.87326631218827
N          20.01563887273489   -3.62590261105167   -2.47721714209009
O          20.44487617270399   -4.69354142171389   -2.12180661824792
O          19.17525575370411   -3.42221877371576   -3.31444340567925
C          18.65940014140728   -2.45472770789103   -0.00103541553108
C          17.92208205045127   -1.88605944978655    1.03586173547571
C          18.21586024386800   -0.57691749040386    1.68418017813431
C          16.84629708059543   -2.68970976059454    1.41550381178946
C          16.72976827376381   -3.87001940774497    0.70475382520798
S          17.98745941480372   -3.98845203961040   -0.48411718632021
C          15.76387055469364   -4.88922595577892    0.89510691839828
C          15.72655275752270   -6.02584076441598    0.15308353017271
C          14.85281307572409   -7.13244130212494    0.27970521125159
C          13.83621715205438   -7.43154125403649    1.20040021724217
C          13.39936295333213   -6.55215415106073    2.32346762046776
C          13.26442217234871   -8.67361668720697    0.96636275012495
C          13.79489344855860   -9.36344798053796   -0.12067182813089
S          15.04929555083862   -8.42009676606254   -0.86879800817087
C          13.47793756120530  -10.63411238526696   -0.63635824389704
C          12.53565127337880  -11.46241385391397   -0.09624750940663
C          12.17564291490323  -12.76665447378500   -0.49385800155260
S          10.91788520583773  -13.51190505751158    0.45373546482490
C          11.02993791929422  -15.03316635607641   -0.38652113504492
C          11.99499513467145  -14.92907367259085   -1.38250555600072
C          12.62764235075290  -13.67134271755866   -1.46165319356971
N          13.72246728267320  -13.48253163119054   -2.37122598791846
O          13.86720621770873  -12.39975576160840   -2.88853305200312
O          14.44498576560340  -14.44230493316225   -2.52872582958946
N          12.19733800996745  -15.94787879905468   -2.37027730688440
O          12.24323415337565  -15.60269940251761   -3.52195525847534
O          12.24894133136942  -17.09659320501750   -1.97062677572992
C          10.25089171500874  -16.16085776933040    0.00973686715233
S          10.84655232181576  -17.78488605209346   -0.15243007022133
C           9.49573101218341  -18.38568283984870    0.75205490085503
C           8.61453318723798  -17.41325906700976    1.14632894539937
C           9.03528177869334  -16.13932870116532    0.71805086635632
N           8.20280822301303  -15.00062363847851    0.92768098688750
O           8.41201879832834  -14.01012489664856    0.25541840184446
O           7.32528626541743  -15.11147366561750    1.75448135086203
N           7.37865297567438  -17.67863199542269    1.90961859605665
O           6.38510514715682  -17.81284161953821    1.25441771535971
O           7.51268853515670  -17.74748683071182    3.09640421269935
N           9.39965049806718  -19.78600327656048    0.95854706124041
O          10.31595008903193  -20.44668209025126    0.52272838360282
O           8.42553198767137  -20.19670607374291    1.54611348541982
H          27.23946781790537    5.48219770071204    0.08776882192137
H          26.05357606544387    5.61212191194326    1.31791290569227
H          28.37465429441598    3.44855910514993   -1.12798132801757
H          27.48480696995560    4.53087875753942   -2.20451508602746
H          27.61055856781918    2.81286839024317   -2.58774240052428
H          25.48944120707797    1.52877901700681   -2.10529909537031
H          22.45108396337958    1.39668594806604    0.36831609385017
H          23.72710515198583    0.06807920669417   -2.09231138418704
H          19.16228200405897   -0.61674621434791    2.22287753229840
H          17.42663605123370   -0.33044354313740    2.38926716285144
H          18.28514805004798    0.21861259710851    0.94381045067977
H          16.16082695720315   -2.41954058653634    2.19950686117824
H          15.05320660439471   -4.70569395938709    1.68460725013934
H          16.45992349682030   -6.12333566415311   -0.63965136345136
H          13.00417545144506   -5.61054902158182    1.94431586503360
H          14.23290753522438   -6.33777880729920    2.99104376946643
H          12.61792414323035   -7.04615438083762    2.89519296925818
H          12.47126976320209   -9.07098707171640    1.57425240237985
H          14.02640860416520  -10.93365930928397   -1.51734777819587
H          11.97247881294410  -11.10774353652156    0.75720522481011
