225
 SCF done       -344.296517579248          0.000532980191
C           3.09701739216537  -11.08159192713301   16.14389420762173
O           2.75776416039074  -11.46483857326703   14.83395247199763
C           3.61552278186347  -12.16961255201815   14.04713843978116
C           4.97491723315055  -12.25258189548721   14.26049106183900
C           5.79138929453405  -13.12666336685287   13.49978251500578
C           7.13375460853528  -13.15901046396568   14.00161863121576
C           7.34484618421974  -12.31410811946772   15.02459884875164
S           5.93535254278350  -11.43062164571911   15.48948257265702
C           5.27247929660942  -13.83524167862164   12.42592063899770
C           6.18149048389887  -14.86424353401725   11.79868240164959
C           7.29280555702499  -14.29329959144708   10.91237705996455
C           3.90746234642111  -13.66407973261606   12.09119933214127
C           3.03664578971303  -12.89407529981489   12.95228221158776
C           1.63599280721975  -12.88989303892669   12.71090199205643
C           0.62804293099481  -12.00478117338409   13.39651829581454
C           0.03333071303969  -12.68192087397484   14.63364485289357
C           1.12025553091482  -13.76293935935612   11.76176548346899
C           1.98389389234996  -14.44922569693193   10.87633361647288
S           1.07425949552300  -15.35685540478563    9.69010576108798
C          -0.41883333039031  -14.84231335391193   10.40051484336826
C          -0.25659117960452  -14.01867558803430   11.44963229760691
C           3.35390511554304  -14.30594820846412   10.93453908498535
C           4.18357372050407  -14.64529016800700    9.79034199029552
C           4.00704974568596  -15.63161231066719    8.90647494596304
C           5.00013218179083  -15.87719937217938    7.84078724780844
C           5.96125187302251  -16.79349490499080    8.19832767901731
C           7.18967810319067  -16.91582958809053    7.51441007001363
C           8.09921052854699  -17.74985469985250    8.24356025697850
C           7.56202193499929  -18.26655113410870    9.36373708259625
S           5.93335156970612  -17.75339415451452    9.66145147785188
C           7.38281660412599  -16.21592490103351    6.33375320695999
C           8.79772887691645  -16.11444431374155    5.83232231124191
C           9.32053930837543  -17.36495806422494    5.12748278684232
C           6.29871531550035  -15.49578487659745    5.76710473492425
C           5.12266898328652  -15.21751388418442    6.58613259734188
C           4.10760063795695  -14.34145078622440    6.12237936411747
C           2.79477623856422  -14.10478643528829    6.81511712968031
C           2.74947818635309  -12.76894702544350    7.55728029791410
C           4.27167046115597  -13.71365772580258    4.89626160849314
C           5.33220635009437  -14.11366443276973    4.06088920591782
S           5.22226251982697  -13.37587630241521    2.47891827671560
C           3.79807631405567  -12.51506362562587    2.96827263381528
C           3.40781796547497  -12.78508974491691    4.22667866473538
C           6.30261819925698  -15.03534164960905    4.41258216458749
C           6.95947928109734  -15.56876653559045    3.21131963097768
C           8.21098704856552  -15.61184899762916    2.74245631986250
C           8.55010865998906  -15.91562454635609    1.36445824326825
C           9.71470183717090  -15.34490114601623    0.88085012163631
C           9.90051649907038  -15.05924352725990   -0.48837646885116
C          11.10597642339927  -14.31325637953384   -0.70153904129126
C          11.79306932638668  -14.08018271511755    0.43117162372899
S          11.01168686604363  -14.68573441780525    1.85152929781346
C           8.90002952234349  -15.36675012850543   -1.40567279703123
C           8.90740662535749  -14.56975667375995   -2.68459625712601
C           9.89390430146006  -15.02837335122367   -3.76342543892955
C           7.84192395942156  -16.22182373488056   -1.00369137447231
C           7.68926886223818  -16.54108276689014    0.40799688309162
C           6.70987013923390  -17.46794034529205    0.83352289540893
C           6.85766670323222  -18.31920152787831    2.06594844943825
C           7.21923557238284  -19.75063499093061    1.65540457307231
C           5.68269994276104  -17.79725922337125   -0.04179914843105
C           5.82438665921653  -17.46178325290466   -1.40173481917121
S           4.54613402223192  -18.15580467423230   -2.36929301736909
C           3.81039062893666  -18.81689619046714   -0.94416485514937
C           4.50701133110318  -18.58033500277875    0.18349909609050
C           6.93353977217552  -16.82140568032699   -1.92622924821787
C           7.16127058309592  -17.17800463293998   -3.33310218274239
C           7.13452365545506  -16.49424994999048   -4.48136706100500
C           7.31242040841720  -17.09315249595288   -5.77725640727568
C           6.76326246028012  -16.58146760397601   -6.90999052770449
C           6.94244096090933  -17.51889363600863   -7.99295237363897
O           6.42062230840022  -17.20042384741416   -9.18956304615767
C           6.40750590627740  -18.16645472027216  -10.21173760859500
C           7.59217357023206  -18.63645319717671   -7.52698445372831
C           7.91623080767718  -18.40158038117427   -6.13080362501300
C           8.73716994779781  -19.17236922528239   -5.34226453149173
C           9.44569780711730  -18.76684305066482   -4.15028275513998
C          10.10970864626946  -19.84243885818706   -3.65643772575753
O          10.90603653413015  -19.95321971680551   -2.57403757517333
C          11.04988245609172  -18.79332929560777   -1.78772377160116
C           9.83686258891506  -20.99571201853654   -4.50604160620982
C           9.06083725440907  -20.58870736794051   -5.52617525406391
C           8.11216444312399  -19.78693427913909   -8.27256881450437
C           9.13481566860036  -19.73070530256101   -9.12286440563949
C           9.69813814937869  -20.96402528573735   -9.70734692271956
C           9.29074332630364  -21.35169529917318  -10.95956983010889
C           9.74999814792929  -22.53993436956854  -11.58120989918553
C           9.29854457505947  -22.62514909131673  -12.93665209154878
C           8.51963514191312  -21.58965906025014  -13.29928189064979
S           8.28251200563721  -20.41599034446157  -12.04340775759488
C          10.47563652132988  -23.45852245307128  -10.83830286100986
C          11.15945650370299  -24.58181852668639  -11.56778906076257
C          12.30186661345549  -24.01238703011066  -12.41604184216947
C          10.71718394057852  -23.18777298980248   -9.47161630542972
C          10.54850499731071  -21.84567749666353   -8.97595903206530
C          11.27369512223726  -21.43480220508001   -7.82261875039124
C          11.50273363942528  -19.98785231097055   -7.49290987695643
C          12.50891063101031  -19.38609727350983   -8.47834219703206
C          11.93288250456769  -22.39742574893732   -7.07172320234741
C          11.77373088038185  -23.76758814239275   -7.39508471588597
S          12.49191358741209  -24.80003818069123   -6.18153763482298
C          13.06698734811683  -23.41072085379303   -5.31820505985951
C          12.71416770533544  -22.24120241688575   -5.87840677808718
C          11.15296757409416  -24.20131389546181   -8.55382500191591
C          10.81318659439397  -25.60017017640145   -8.62372893275918
C           9.80609592710608  -26.15211998689389   -9.32706232759369
C           9.27681054525549  -27.46671004399823   -9.04288260468661
C           7.89903424657477  -27.57321958545892   -8.97771612825360
C           7.23441808477468  -28.73663198206852   -8.52710961612573
C           5.81441315130550  -28.60226906269846   -8.65057613590338
C           5.43867913650816  -27.39991404194638   -9.12499269177451
S           6.76398776262297  -26.33613442292780   -9.46531372664773
C           7.97223295460521  -29.77216032076411   -7.96323872169182
C           7.25438428072124  -31.05847986375068   -7.65330637063822
C           6.87487772872719  -31.75465000310098   -8.96521166066057
C           9.37737603665979  -29.64111196410688   -7.89814505912558
C          10.04139860173987  -28.61646383108514   -8.66394701159287
C          11.36792392562412  -28.84525648204408   -9.10707111139036
C          12.00436111021058  -28.07739380579482  -10.23449259034140
C          13.25009123659411  -27.27584474445497   -9.84831085905377
C          12.05705642128325  -29.94913163949337   -8.61508662118235
C          11.49980274231586  -30.71298141195203   -7.56008720290158
S          12.64164390998362  -31.87534192756339   -6.93505584838632
C          13.78255761526255  -31.43126163335436   -8.16404799144664
C          13.36089250291805  -30.43249436497964   -8.96079742394566
C          10.18949954627486  -30.55703962151730   -7.15134406134852
C           9.77672671179469  -31.20612543867151   -5.93121935809534
C           8.90152886506155  -30.68741955301635   -5.04880366138485
C           8.61381376729011  -31.31318469060572   -3.83012148779204
N           8.36521639907536  -31.82554296574416   -2.83218521466353
H           3.51977968886039  -11.91186503368445   16.71512088509388
H           2.15516109555321  -10.77468241184713   16.60002967928866
H           3.78981570615970  -10.23592052296676   16.16169377530102
H           7.90729773055583  -13.79178981975555   13.60968831410052
H           8.25559240852205  -12.13626097368928   15.56289372605015
H           5.59593230912430  -15.57884728710238   11.22482691599047
H           6.65361049603151  -15.42143859817296   12.61317570284970
H           6.89549574579307  -13.78394071408381   10.03850139467094
H           7.93097270108478  -15.10313861737531   10.56371565734812
H           7.90506777025092  -13.57831142275352   11.45511153171559
H          -0.17584844083935  -11.79023823743604   12.68936526229192
H           1.07430306300780  -11.05458728417941   13.67430911388034
H          -0.44419355845071  -13.62114170364248   14.36222796882502
H          -0.70839699938416  -12.03481600257415   15.09658499840787
H           0.81069432686845  -12.89537987186741   15.36093014729439
H          -1.33590685354376  -15.20586963633930    9.97893928092228
H          -1.08598771324376  -13.62412633170033   12.00686553794866
H           4.99398594741530  -13.95162237107498    9.61476741499979
H           3.28446274534643  -16.41988507733347    9.07585611643792
H           9.10492951486393  -17.96372737620444    7.93258397012735
H           8.02154570835979  -18.93479396190448   10.06630547440452
H           9.43380678760563  -15.92353432333923    6.70221116347896
H           8.88168117295840  -15.24506471214945    5.18598093020668
H           9.30456871262297  -18.22429066873462    5.79196628644138
H          10.34314774516608  -17.20372448113906    4.79282265451125
H           8.70992107345060  -17.60361769332793    4.26422311114460
H           2.58401339660426  -14.90938575800758    7.51543825424207
H           2.00514308244370  -14.11409316089093    6.05976293722521
H           1.75197664781634  -12.60146621054492    7.95778623462311
H           3.00315531355961  -11.94437048941146    6.89598406733597
H           3.45281207588970  -12.76665174146322    8.38482606148771
H           3.33532683948655  -11.85236441652131    2.26261518671292
H           2.54169062304344  -12.33528355171784    4.67580004091226
H           6.19730386200512  -15.85097808277034    2.48725037449148
H           9.04994251164523  -15.24412043612065    3.31278420153813
H          11.44979917643859  -13.98904955933776   -1.66615289132590
H          12.72989839210280  -13.56947779268789    0.54335517764242
H           9.17077957743665  -13.54601364478615   -2.40173502287230
H           7.90036036116737  -14.53510108434885   -3.08986408936072
H          10.82123073040273  -15.38475648606405   -3.32133655331787
H          10.12650784790996  -14.19799729473612   -4.42696417168066
H           9.47258978679698  -15.82311557005596   -4.37047156570953
H           5.93379313502681  -18.33059297878657    2.64753715501677
H           7.65370593493312  -17.94285764423613    2.69930633585506
H           6.43842962702935  -20.19579193522321    1.04390892098216
H           7.35991979697602  -20.36554829843533    2.54153007819050
H           8.14466670550635  -19.75352154937804    1.08280564395748
H           2.88763606060165  -19.35425958541118   -1.04839329896429
H           4.18834776948421  -18.90825404052998    1.15673970459560
H           7.26277338511759  -18.25565451455184   -3.42615408088069
H           6.87310154609736  -15.44480295818726   -4.51175682375164
H           6.22059869206179  -15.66119692704762   -7.01310720258178
H           5.71117086832741  -17.80005171256452  -10.96495082723513
H           6.07292238102671  -19.13785893499074   -9.84039853853744
H           7.39783991165499  -18.28133810468235  -10.65908470487545
H           9.48708737183903  -17.76849737121996   -3.77236032727719
H          11.66489118374621  -19.07463962911333   -0.93476215080113
H          10.07887269898767  -18.42745164974989   -1.43819703682745
H          11.54554305946207  -17.99502822195096   -2.34901153246073
H          10.21585971965711  -21.98123705911564   -4.31518395729019
H           8.66900205763956  -21.21711042413646   -6.29805298899603
H           7.68446276012645  -20.75440256867968   -8.03450724911238
H           9.56212996651558  -18.78144631851412   -9.42348064404449
H           9.52509803556046  -23.44537669534271  -13.59335932660090
H           8.04307136269081  -21.42113121848193  -14.24555775280296
H          10.45636316494685  -25.11440198417832  -12.21149956688443
H          11.59167976664476  -25.28453900661886  -10.86529655050080
H          11.93684664687064  -23.29423370135320  -13.14560904610460
H          12.80896847515196  -24.81698423606338  -12.94416780414689
H          13.02439322504197  -23.50981731181401  -11.77633464284154
H          11.89296439693798  -19.89601949496110   -6.48116446392022
H          10.57611820632950  -19.42252299404281   -7.52912624160423
H          13.45757803420698  -19.91666495656275   -8.42433708661192
H          12.68354493861965  -18.33861738894323   -8.24347282527336
H          12.13749971987615  -19.45777403867073   -9.49806894111105
H          13.63720665718338  -23.56951653057467   -4.42351059767374
H          12.98761198791992  -21.29377678438769   -5.45212135360809
H          11.30516368181741  -26.22081258463209   -7.88346929586355
H           9.20190200919615  -25.53140087714376   -9.97739333603202
H           5.11206107355081  -29.36554303117032   -8.36952245082479
H           4.44215532928333  -27.04226569653659   -9.29856703073167
H           6.35470648632111  -30.86115394262164   -7.06662798340734
H           7.88197994339481  -31.74209257777106   -7.08838408142620
H           6.24059006160096  -31.12361539363300   -9.58222177766929
H           6.34554268860452  -32.68086098744566   -8.75384682829691
H           7.77286824782430  -31.99165132569354   -9.53234510765590
H          11.26800233323338  -27.41823755718978  -10.69247317530405
H          12.29490411057674  -28.81359947663555  -10.99099123163087
H          12.98993034317732  -26.40491996813403   -9.25498798913744
H          13.76127222246509  -26.93592400583661  -10.74682706089207
H          13.93983015252265  -27.87910129689288   -9.26526218718940
H          14.71536184211529  -31.95946911596947   -8.20479931358584
H          13.94744469452359  -30.05412274052460   -9.77742994467911
H          10.32251133374694  -32.10411208898204   -5.66314027027841
H           8.37485711217027  -29.76357504568465   -5.24922463494257
