100
 SCF done       -198.459117548199          0.000726705650
N          16.57641705991800   -9.24997351556466    3.23981093316942
C          17.21583956283128   -8.05136126668067    3.08462706499607
S          16.49782201603644   -6.78742888807805    2.14517065108731
C          17.81229372829953   -5.68246198443873    2.51793879539003
C          18.73980166797141   -6.30358559109675    3.32343634728223
C          18.39909808992364   -7.64072597956124    3.64630521120157
C          19.23622472116569   -8.47020656201963    4.58141359925258
C          19.69978342188439   -7.49082354836214    5.63743671054104
O          19.34125634854421   -7.48415801803074    6.78099903887490
C          20.62935529516177   -6.47131650324459    4.99483942476914
O          21.78423008154009   -6.35278659700540    5.30442235841200
C          19.98469046401560   -5.67763682835699    3.87600415724575
C          17.74331963450474   -4.34405993431690    1.98195142328993
C          18.86335611838139   -3.53012107948013    1.82862243536485
C          18.75344734210540   -2.24719637596440    1.31275776433242
N          19.97260822069892   -1.48248330343453    1.25048201203623
O          21.01669536270509   -2.10081951780571    1.24660898571188
O          19.89437445496155   -0.27174171924677    1.21850685002676
C          17.52184889248560   -1.71020027994536    0.90178237726270
C          16.40803487703293   -2.54773802250358    1.04382768744426
C          16.51023735381487   -3.81346437110873    1.56751623457148
C          17.39782258399721   -0.39718913512067    0.30163584272708
C          16.31810692202369    0.38837495821639    0.42595032782044
C          16.17519529077260    1.70532216042924   -0.16047646637126
C          17.25792799077754    2.42623795420442   -0.66712543197878
C          17.07284533814623    3.68242551502054   -1.21332261374956
N          18.26716268505599    4.40473744495884   -1.58842704779728
O          19.10144083586660    3.79838879741266   -2.22406582124312
O          18.37064059861124    5.55193926875222   -1.21489704611439
C          15.80318249453411    4.26965090633128   -1.31729186896461
C          14.73439999623172    3.55564752054463   -0.76878543015213
C          14.91472227013952    2.31379158345812   -0.20063983234963
C          15.55797996515180    5.53407733597161   -1.98909683096302
C          16.20074551905484    5.94529368455917   -3.08969607291393
C          16.00345196834657    7.21760426470270   -3.75534718932075
C          14.89027849456034    8.02552443483554   -3.54533563439065
C          14.77375927635498    9.25453892767894   -4.17595951818933
N          13.55295830590155    9.98669204367764   -3.96128249036126
O          12.86895843435762    9.66706781200511   -3.01187467958100
O          13.26449721102757   10.86481569096310   -4.74884100437869
C          15.77585150778980    9.74617174150223   -5.02987714527084
C          16.87668567741793    8.91156621261666   -5.24953401091835
C          16.98287777241820    7.67990507171899   -4.64434243234626
C          15.73521017144361   11.07307672610867   -5.61727672997643
C          16.17747518621149   11.34372807899358   -6.85341621536776
C          16.20991693845505   12.65003009418924   -7.47769951710057
C          15.92558648574941   13.83037623690586   -6.79396150453077
C          15.99547695761777   15.05686821706374   -7.43355542310055
N          15.63918606120773   16.21983657504783   -6.66135788900990
O          15.67595613367692   16.12291720057775   -5.45547753612016
O          15.32059339581231   17.22821770911031   -7.26065523184959
C          16.35726078845082   15.16921584208483   -8.78744401622381
C          16.62705988629277   13.97664657328216   -9.46489570266107
C          16.55604015931054   12.75600762563780   -8.83185759440263
C          16.50331443617479   16.45294757701344   -9.45022702676319
C          16.15695851803180   16.66065743073431  -10.73034404978264
C          16.27201719331055   17.90073838966708  -11.44176269080654
S          16.36062952733655   17.82221566757254  -13.17302654643220
C          16.48046177778602   19.54161756210182  -13.25624969807095
C          16.43616664117049   20.15283375807901  -12.01703392084993
C          16.31297903931614   19.20799839106654  -10.97869960404595
C          16.15225221867898   19.64078535189838   -9.55085311429624
C          15.59920786534268   21.05336686087934   -9.53951556845760
O          14.56467878472806   21.38372072225928   -9.03610356655286
C          16.52059025764401   21.97897699670217  -10.32614532041854
O          17.19101274305603   22.84468363939980   -9.83718408012178
C          16.52175727260122   21.62610063522921  -11.79741606992075
N          16.59551198893788   20.11457610475537  -14.52883229826960
O          16.66249950210969   21.32760783270598  -14.60631440183364
O          16.61998696720705   19.34444188222384  -15.47168358846877
H          15.82153664951984   -9.44324531448597    2.60260651714690
H          17.14867867135123  -10.04490977665433    3.47390209605301
H          20.10167259420718   -8.89528447974566    4.06367439804273
H          18.65083199859335   -9.26676230096674    5.04109771195461
H          20.74473716727709   -5.53702692211289    3.10005411116905
H          19.75703327108150   -4.68740357904371    4.28527996075316
H          19.85031676109812   -3.87266312599155    2.08688813379292
H          15.44674881055009   -2.19219010998962    0.70743176940247
H          15.62199025108997   -4.42067974595369    1.66127217040170
H          18.24792761795411   -0.04562277343784   -0.26383655973628
H          15.47381918413746    0.05269575034397    1.01406085870398
H          18.26269430100614    2.03892525097421   -0.59776442498559
H          13.74574892523201    3.98730540713888   -0.81225167631544
H          14.06433583206236    1.79097133167126    0.21194705201444
H          14.76933225258762    6.13615588845584   -1.56028998518220
H          16.96296755742157    5.31886131709695   -3.53580007313039
H          14.07894889190778    7.70652025218942   -2.90942562104957
H          17.67322161955684    9.26369690625254   -5.88658056389660
H          17.85232719630381    7.06784232417347   -4.83265384923652
H          15.31415751008648   11.85757577829348   -5.00612847377883
H          16.51731975631426   10.53008189805719   -7.48160095426453
H          15.63615329356301   13.82006531522438   -5.75478571893244
H          16.92997810833288   14.02476654780846  -10.49934872395224
H          16.77714959022069   11.85786345981656   -9.38964893994201
H          16.92014585007763   17.25705285310483   -8.86561810086098
H          15.75570918402742   15.84141013228401  -11.31283678211835
H          17.12513660197638   19.66169179959777   -9.04808488553483
H          15.48432211798499   18.97531597470837   -8.99925340091151
H          17.40385208191856   22.04941936378538  -12.28783696595454
H          15.65758360239208   22.11746658792158  -12.26035783967729
