222
 SCF done       -395.366208093272          0.000966076987
N           4.68159896151606   14.98618647223245   -4.17056553865593
C           5.55439265081646   13.94899066353368   -3.83724821799492
C           6.77458373230299   14.14573578880258   -3.19865715170063
N           7.39006475458934   15.31037869318224   -2.79045381032013
H           7.01673489849692   16.24136477362534   -2.85527160932729
C           8.55559116215053   14.94215888075525   -2.19762142609639
N           8.75047868227881   13.66346992726302   -2.20477115343709
C           7.66144303732569   13.10065498818620   -2.82838040254288
C           7.38557836326762   11.73987795955894   -3.07557804489991
C           6.12618549764679   11.53485742239640   -3.66999825973769
C           5.25829981041738   12.60335189604413   -4.02422907720080
N           4.14692935498316   12.00115815631989   -4.57076948728098
H           3.30438895226999   12.45509669486699   -4.87795162266740
C           4.37003825602963   10.66035060034227   -4.51534392916741
N           5.51945581030013   10.34999957047637   -4.00677599444086
C           8.25807917470989   10.64719034449921   -2.74553717246014
C           9.51593584189271   10.85171931942240   -2.29127811956569
C          10.52158697397695    9.90603733106421   -1.90627368827075
C          11.64682067125377   10.35496662471694   -1.19459111756868
S          11.68242696847093   11.93660914084996   -0.40784454941638
C          10.03421270981757   12.06719324067618    0.36384447956858
C          12.80693122114087    9.57562131505982   -1.05032306573799
S          14.20486114580255   10.32329054954202   -0.22756642758176
C          14.11481833643181    9.39131667845358    1.33577552845842
C          12.86424410718560    8.26340321536443   -1.48680318554515
C          11.66207500888973    7.71128829669190   -2.02868244613543
C          10.50806478420280    8.52476605050983   -2.26353073417295
N           9.43158996121510    7.98865099818867   -2.84351077656617
C           9.44541020293913    6.70840353984780   -3.15500812495288
C          10.58274441894276    5.89635285959683   -2.89883303922152
N          11.66884897393573    6.41914304235984   -2.36372006047294
C          10.56718804504471    4.48169721404768   -3.20608340355230
C           9.41182523798096    3.90073922479945   -3.81445496867715
N           9.36373487352153    2.61974349504687   -4.11022055876132
C          10.42605517462910    1.86406138310918   -3.79396777291384
C          10.40517856776237    0.49073652228404   -4.09850667818819
C          11.47727743197048   -0.30138509641443   -3.77284201233541
S          11.60255279790574   -2.01108245232502   -4.13625514079346
C          10.04094424382528   -2.36946415160164   -4.98436882488493
C          12.59234800511740    0.26605753903216   -3.09695479785077
S          13.96866025453285   -0.78658905587508   -2.67252608615811
C          13.28155135495423   -1.55412255989755   -1.17067673596482
C          12.64243010408580    1.59456325094369   -2.79847865605397
C          11.56770665901127    2.43916930780725   -3.15611345833151
N          11.62248499492173    3.74965333722921   -2.89372222530458
C           8.25912932342995    4.73436217329705   -4.11914522013945
C           8.27288762002227    6.12439218733886   -3.77444472412679
N           7.23679762496238    6.89858065090497   -4.00633601982708
C           6.17021035057477    6.34874984152808   -4.59591958454958
C           5.05565114533445    7.16009994432048   -4.88663968863649
C           3.97222746850676    6.62123427196724   -5.52158384474874
S           2.61704837366722    7.69963069943071   -5.96196356753469
C           2.85755783920848    7.72744346194872   -7.76541428343122
C           3.93529102713465    5.24091700630169   -5.84162131277353
S           2.49785563674441    4.50088179403418   -6.60007968673496
C           1.33675969357308    4.61214530621056   -5.20320051724568
C           5.01488021823907    4.43950592504630   -5.58680486163818
C           6.16227905714393    4.97106305136647   -4.96440183937130
N           7.21716463582928    4.18468165083331   -4.70516754214020
C          13.98100797108761    7.35517993691203   -1.45556319129215
C          15.29549518533116    7.62449835601217   -1.53888527518421
C          16.28630486133167    6.59458362568951   -1.70800286354737
C          16.06538370182048    5.36151496752081   -2.34063491969811
N          14.97110101087233    4.83095918517838   -2.97679872588182
H          14.04584776685533    5.22736769265821   -3.04073862911634
C          15.36228731161299    3.63804107567820   -3.49962055913994
N          16.59866128817159    3.34113744476998   -3.24985792830886
C          17.09023116617321    4.39765007349516   -2.52476188013282
C          18.40289337542018    4.55289244017820   -2.04804845221794
C          18.63927807455786    5.79071330239889   -1.42603035570835
C          17.61416010647397    6.76067180337282   -1.29474290804794
N          18.20356203383811    7.81564812582701   -0.64471400989562
H          17.75717132262776    8.68263530817946   -0.39730224424768
C          19.49878286921370    7.46489364281949   -0.42449981272601
N          19.79439534316960    6.28212237813194   -0.86359460289543
C          19.33488378430598    3.48377978667165   -2.21062610311273
C          20.62353472971562    3.52384054401884   -1.81076968348825
C          21.57378951570588    2.45656160067290   -1.90099119310208
C          21.47054666166769    1.29555753593054   -2.68326964786198
N          20.54526569694138    0.90041762640193   -3.61561191058777
H          19.73824335536535    1.42199858809228   -3.91470486846664
C          20.95158919823719   -0.30467643097816   -4.09075400252390
N          22.05250284576192   -0.72655605324528   -3.55107415040976
C          22.42271629835490    0.24555073652913   -2.65414793571687
C          23.55666164798576    0.24599450072837   -1.82247756239283
C          23.70593904696313    1.42825588454794   -1.07470945029693
C          22.75156280770449    2.47349559693432   -1.13621678311036
N          23.21135756040855    3.42668355644270   -0.26381479174188
H          22.76368960317920    4.30495974790653   -0.06201755673036
C          24.37052779601839    2.95143439928747    0.26101087403554
N          24.69575835367790    1.77900545677919   -0.18629859304315
C          24.40005132449069   -0.90406836027279   -1.76372138315535
C          25.52067139009828   -0.98373636233943   -1.01297611690587
C          26.37501880981959   -2.12287313970353   -0.86763162682154
C          27.29463807913801   -2.20541368843057    0.19210628106106
N          27.57839907375613   -1.29808154568238    1.18062231556747
H          27.15954894851831   -0.38880976539574    1.28351208236271
C          28.51891991898670   -1.86906806284961    1.97896145458793
N          28.85817430652805   -3.06214957383508    1.60228452802673
C          28.11152524978388   -3.32736379380333    0.48116537779180
C          28.08553532134472   -4.48709693289231   -0.31388278674752
C          27.24479602989966   -4.38422000105502   -1.43816344157067
C          26.41455072344003   -3.26071863249762   -1.68923385869531
N          25.76086591545250   -3.56495214536420   -2.85571085692390
H          25.10939382169127   -2.97057328206137   -3.34029729639459
C          26.20122051287223   -4.79320306872763   -3.24324092069621
N          27.07080948730897   -5.30905116352017   -2.43496370582585
C          28.73329456883262   -5.72330440727443   -0.03205329565131
C          29.46411623428712   -5.99413974888857    1.07446098572557
C          29.89758450442331   -7.31578330835050    1.42132331587998
C          31.04498546467764   -7.59591907488496    2.16540217421150
S          32.18443611322666   -6.32110014654137    2.62597076785773
C          32.33477088492792   -5.31428631410033    1.10924584363555
C          31.34823560825058   -8.90037826211159    2.58826976410703
S          32.78351872696530   -9.11061625688679    3.63663565271927
C          34.05848166954956   -9.17864242492930    2.33879197945442
C          30.58007952518156  -10.00919959713050    2.23159518138175
C          29.41338883423137   -9.75723838986958    1.44464689179678
C          29.05457731360599   -8.42192741371248    1.09220412683387
N          27.87411425967422   -8.17358450972316    0.52474523575044
C          27.10557516959610   -9.18143405842563    0.17643412639516
C          27.53002375319448  -10.51660148866909    0.39527047887489
N          28.64216921041055  -10.77097055097534    1.05226324642307
C          26.70668290341137  -11.62298442523268   -0.03615723645909
C          25.46928671775992  -11.38056341621289   -0.70570388173827
N          24.70958519923031  -12.38471021151147   -1.10621598312784
C          25.13294984484906  -13.62821733589202   -0.84663574415544
C          24.35736258660745  -14.73474561411682   -1.24653577674749
C          24.77216337170982  -16.00915956854840   -0.96593078180609
S          23.87551664145917  -17.44779418450985   -1.42000876368642
C          22.40740170016961  -16.79009123819098   -2.26397488155585
C          25.99807521418649  -16.23710501659419   -0.26166582611514
S          26.42040167672302  -17.90835385454256    0.05503683383457
C          27.98570074471225  -17.78699148722129    0.96588447712967
C          26.77212744525197  -15.17837450512069    0.12872150774934
C          26.36201464275420  -13.86290559579343   -0.15576431297238
N          27.13263041582494  -12.84253811951791    0.22841046627812
C          25.03156917880358  -10.01037083407158   -0.93289795497594
C          25.82519815410452   -8.92141535917574   -0.44604130637557
N          25.43572578392015   -7.67038656422179   -0.56545278030570
C          24.28387906843107   -7.43857662879279   -1.19763456602282
C          23.82462618642806   -6.11540876189124   -1.35744204519322
C          22.67425140771461   -5.86560186007786   -2.04714746189719
S          22.13519725891268   -4.17530940760813   -2.20118916719208
C          22.30754284902266   -3.89947524276667   -3.99683164464889
C          21.89397786600468   -6.93469151077151   -2.57165028964215
S          20.37700589430439   -6.48603655784261   -3.33539304668617
C          19.61410598468013   -8.07805604410361   -3.74106727081214
C          22.32139615351440   -8.23048091523050   -2.42913652930091
C          23.51704994663613   -8.51298492598576   -1.74081991226509
N          23.90363192229648   -9.78823090332961   -1.57821196225144
C          30.97133913123686  -11.33695658339637    2.61586121279137
C          30.35036221490927  -12.48887152492017    2.29960681816228
N          30.86871135702775  -13.73191045410772    2.72176440267813
O          30.23303502330310  -14.72693465489571    2.40091686517256
O          31.90370103827473  -13.76973742781488    3.36510630454702
H           5.12820636862211   15.87802153939327   -4.32441250401340
H           4.02913721560853   14.76327268025258   -4.90747929893262
H           9.23898085141278   15.65239863129991   -1.77352245817736
H           3.64180944302675    9.95350344535614   -4.86692939926707
H           7.85339145377021    9.65521605516265   -2.87974300955980
H           9.84367362714156   11.87977374020676   -2.22052096643786
H           9.38876888249309   12.70008578208370   -0.23815666488075
H          10.20269225308183   12.51385461537332    1.34030118836106
H           9.61125112861525   11.07420504661878    0.47061669625985
H          13.18250181735358    9.63458366977038    1.83738615083554
H          14.95718866247721    9.71274397029890    1.93931541335153
H          14.17887710436462    8.32724058013936    1.12822948919011
H           9.52621945755014    0.11458991997704   -4.59406664186575
H          10.08203680316238   -3.42525665005218   -5.23392633357340
H           9.96770124963928   -1.77778013325474   -5.89190556671354
H           9.20310692886950   -2.17925503563949   -4.32026750575592
H          13.06923584359838   -0.77923528576192   -0.44027781354857
H          14.05028387981575   -2.22209451041367   -0.79793666799890
H          12.38591248241802   -2.11442882810809   -1.41874632120559
H          13.49370377569474    2.01060937764565   -2.28356844898420
H           5.11888180092711    8.20150520342031   -4.61040904697541
H           2.07988106064243    8.36829569076001   -8.16747371320839
H           2.75832883374259    6.72151344828723   -8.16106812304243
H           3.83938995023771    8.13788025733838   -7.98315961812662
H           1.18715895967413    5.65138458503973   -4.92806071395171
H           1.73313017513026    4.04069172831241   -4.36899924900729
H           0.40641661764745    4.17581503532945   -5.55110483293040
H           5.00010478431741    3.39273497115235   -5.84611587172733
H          13.66393214363704    6.32223304310453   -1.44522882440259
H          15.65191537483178    8.64472603451730   -1.50842738079258
H          14.69991530664026    3.01933555240337   -4.07338787096415
H          20.19495601952248    8.11655016471258    0.06806571855945
H          18.89238918977864    2.59731516157320   -2.63959538171596
H          20.95925542685685    4.43723101537333   -1.33939908961719
H          20.40195315378927   -0.84145167267784   -4.84005199228739
H          24.94987890530409    3.50581845415805    0.97453296901556
H          24.02110173540929   -1.74489632762160   -2.32388840723838
H          25.77890745097281   -0.10832755864224   -0.43335244144934
H          28.93228501492558   -1.36765615203518    2.83294697441887
H          25.85339552782326   -5.27182330134409   -4.13907333184503
H          28.56287213051990   -6.48351858797879   -0.77901100480094
H          29.68897064986930   -5.19523733704576    1.76828599706848
H          31.71748421519097   -4.42472674271639    1.17424730656291
H          32.05232517593534   -5.91342256659839    0.25120962780101
H          33.38299792680995   -5.03528505754395    1.04449747288362
H          34.07562092250275   -8.23781714054549    1.79752520019584
H          33.84908898481229  -10.01061187491058    1.67311611019967
H          35.00146516028228   -9.33434682758965    2.85117528547322
H          23.43943717999123  -14.52478486785966   -1.76854823807684
H          21.83096435338575  -17.66142919435421   -2.55887982876698
H          22.70438890146324  -16.22787119623240   -3.14411085126505
H          21.82823600134694  -16.17758943076482   -1.57960693586624
H          28.74626149392365  -17.32440998206973    0.34502695081424
H          28.26569657632804  -18.81082526412007    1.19318274764904
H          27.84373927884796  -17.22847273636605    1.88559257755958
H          27.70158212452034  -15.29514173415126    0.66046340638725
H          24.40232395164213   -5.31413488708328   -0.92609258307157
H          22.32304944040606   -2.81631576404897   -4.10800392993493
H          21.46119549225462   -4.32285816680113   -4.52701960840098
H          23.23591806133699   -4.34764077285313   -4.33674679298430
H          19.47605262898222   -8.66302753288097   -2.83630990765157
H          20.22185059970042   -8.61054422326170   -4.46697037949436
H          18.64917609112057   -7.83377677752649   -4.17536401766191
H          21.76621931947663   -9.07214127354467   -2.80801709948966
H          31.86809751973939  -11.40718568352622    3.22336656281732
H          29.44457840324388  -12.56041551685747    1.71800850011445
