270
 SCF done       -459.740498035762          0.000782464049
N          11.54445950229241  -15.04172567630039  -16.99943390778100
N          12.52755243531070  -14.24347227325218  -16.38982528799770
C          13.85772695582758  -14.64432059626860  -16.55848493565785
O          13.97402589983748  -15.85777154383362  -17.13484582340408
C          14.88659290184627  -13.86152673504568  -16.12877715406626
C          14.58022257162824  -12.57685371949302  -15.50686970130916
C          13.20509764468507  -12.12376626573154  -15.51175628636210
C          12.23319793912012  -12.95221025489038  -15.96041169239996
O          10.88952377812570  -12.68681510275715  -16.03453480156188
C          12.94071824025881  -10.78890990187183  -15.04043340325346
C          13.88116009669930   -9.99448559834608  -14.49418266981232
C          13.56454822772644   -8.59309531086062  -14.04681471307498
C          12.18029520612342   -8.07096947712655  -14.41413830390234
C          15.23914851925444  -10.49677539141716  -14.34700911370159
C          15.54123780918877  -11.79181660854327  -14.94224575294162
C          16.91942837800677  -12.23416693542797  -14.93451396920196
C          17.22428164729768  -13.43408686552284  -15.67113427925865
C          16.28959588133920  -14.21658001513280  -16.24509737806983
C          16.73290555921340  -15.41262631830183  -17.03891074712726
C          16.68261295205207  -15.11702165032055  -18.53896855282158
C          17.85676890342794  -11.49997431039644  -14.28702291465333
O          19.20406210385043  -11.76152310218628  -14.27366584799683
N          17.53161739813133  -10.33282386851859  -13.60092982100216
C          16.23295974739596   -9.83047745289178  -13.69226399476482
O          16.05115211114314   -8.65517993637868  -13.03733886612597
C          18.50795950924785   -9.68422895434776  -12.83645099011166
C          19.25981388300655  -10.38088976037898  -11.94509654904966
N          20.40498176903783   -9.90557478196636  -11.33939766272561
C          21.32155095216850   -9.07944677235191  -12.00616262583404
O          21.19086892345152   -9.05121975292160  -13.35454532884450
C          22.30197222152950   -8.40028120855376  -11.33638112151615
C          22.47713082505058   -8.64894982924229   -9.91500326295096
C          21.68035272465309   -9.69428447429299   -9.31528573717532
C          20.69584411630809  -10.29368440711749  -10.03426049208256
O          19.86094948945060  -11.27093007279415   -9.57208868410076
C          21.97781117568990  -10.04667659348010   -7.95408227669557
C          22.87604185119010   -9.39410722001586   -7.18866876618826
C          23.05442308235838   -9.84777744575684   -5.76621042370607
C          22.14232499373003   -9.05903309889096   -4.82458788373465
C          23.61866091899358   -8.28203303504716   -7.75020655498957
C          23.40930200105882   -7.99109958610592   -9.15920020282634
C          24.24567212815285   -6.98587778508347   -9.77216390230602
C          24.12140551572277   -6.81070687590890  -11.19291076015017
C          23.22752921793829   -7.47086280586494  -11.95810600041047
C          23.18309196749723   -7.14749480396825  -13.42570761665627
C          22.08790980803325   -6.12213762550820  -13.72506034772141
C          25.13551301972059   -6.29118827012765   -9.01417435535842
O          26.04592222653850   -5.38738703495142   -9.49301016902774
N          25.24502954998261   -6.49487622980704   -7.64654721844535
C          24.50870762920218   -7.51741202756977   -7.04908654644311
O          24.73139487949530   -7.65337548503129   -5.71825438874635
C          26.13791421720823   -5.72751777437523   -6.88866827969479
C          26.15895804349157   -4.37284997011003   -6.98107164422936
N          27.13796632892107   -3.56943755589218   -6.43567777783465
C          28.47784999086974   -3.97813005381846   -6.33665383624812
O          28.83011465913810   -4.99277349695801   -7.16624524282603
C          29.35716912866965   -3.35885552394819   -5.49333693426959
C          28.91646695649072   -2.16844608669545   -4.78970485362335
C          27.64290654109663   -1.59993383971731   -5.16349201128254
C          26.80563248329695   -2.29829857276151   -5.97383204288516
O          25.56298980491500   -1.89118799212543   -6.36692810042833
C          27.33878472507847   -0.29201058998214   -4.65001712156103
C          28.08604845793414    0.33861124131544   -3.72084856810392
C          27.71473603984411    1.74320170136697   -3.33600775429612
C          28.68248227133268    2.74877193237175   -3.96244203123839
C          29.27382407729076   -0.31478544127141   -3.19733842889611
C          29.69007370113978   -1.53771260806033   -3.85510379046190
C          30.97428327982606   -2.08749411480107   -3.49864875395320
C          31.45932152231082   -3.17160204282074   -4.30929487202456
C          30.73115132957836   -3.77260927707583   -5.27391644797458
C          31.36336454148367   -4.90096625721720   -6.04055768231517
C          31.02236557314878   -6.25299424541216   -5.41146911831474
C          31.68321038289486   -1.54601849272492   -2.47046411383561
O          32.92362592289241   -1.95500430406107   -2.08710016522351
N          31.19770893683317   -0.47704840204620   -1.72479141880260
C          30.00989604389396    0.14489139572063   -2.14085617513930
O          29.61275405142905    1.21088456623966   -1.40048791922470
C          31.91899391542676    0.06653402278506   -0.66872185947678
C          32.61562461588097   -0.62203774370967    0.26968923201237
N          33.20640860361045    0.02290864964969    1.34984753818006
C          32.57968316522277    1.10405190074173    1.98847662642146
O          31.23060319564225    1.17985893903484    1.76082512332100
C          33.25846188804437    1.96500805760627    2.79904976129836
C          34.65069495205326    1.67752601799221    3.08382090716460
C          35.17446162281828    0.39889340457293    2.66065559074564
C          34.44585571507997   -0.38674284750326    1.82311121915989
O          34.83719018868481   -1.59353978087027    1.32981830721646
C          36.46688513487670    0.03059004488487    3.16878783352260
C          37.25978155103524    0.86111505574029    3.87744823665876
C          38.59240170686748    0.33755531584153    4.33896959298596
C          39.67832930511540    0.59612477617657    3.29271998303076
C          36.81015001557203    2.21434862072854    4.15909134832025
C          35.44076379000579    2.53069125935906    3.80227771426946
C          34.89747451359926    3.78313511570908    4.26509475326938
C          33.48234063741879    3.98612039957625    4.10533551259687
C          32.67728958822396    3.13846384695115    3.43409383779746
C          31.19910239886752    3.38956483520403    3.30499932603254
C          30.66406489970117    4.62599674268596    4.01745764171291
C          35.71179665651976    4.69169500100037    4.86833278093722
O          35.29218785744927    5.86708256452982    5.40968837411060
N          37.07537092446057    4.46681613567687    5.02542070207481
C          37.57551563839721    3.18213140332587    4.74522138696194
O          38.88121501482360    2.98083948237327    5.05947098454214
C          37.91310969634702    5.45977351200391    5.51747030483300
C          37.83048942222295    6.77042337030330    5.16971734516526
N          38.67738000287552    7.75379241985367    5.66729206779995
C          40.04429083931944    7.53203847416216    5.87104646174611
O          40.51925230461818    6.39455700505895    5.28309076927971
C          40.84047267802389    8.41392395493242    6.54726106474189
C          40.27459235873216    9.68628737473824    6.95032477068391
C          38.90704147903102    9.96239118146938    6.57917059351914
C          38.16199473632734    9.00925783145554    5.95341446973315
O          36.86524712487051    9.15349423233705    5.57165248362129
C          38.38509362884486   11.25630468399393    6.91735365292992
C          39.08560452602650   12.20525381743819    7.57159116989639
C          38.40744154990320   13.51964667296177    7.84177028204160
C          38.72935166732299   14.53585116024453    6.74399442477353
C          40.46338213212177   11.94308634169073    7.94965938204819
C          41.01038823080489   10.64682172386974    7.59382433569820
C          42.38848130346656   10.38036803601614    7.92703863788220
C          42.93364402977824    9.10916863979951    7.53605357561083
C          42.23666742173072    8.16660344081716    6.87025432977581
C          42.86374268959176    6.85262078168813    6.48927375004795
C          44.28294254547107    6.61504810648482    6.99187651650524
C          43.11783920847592   11.30844580631595    8.60547442380420
O          44.37876955929434   11.10600867441356    9.09464597403102
N          42.59427382540697   12.54887187141614    8.94379554146125
C          41.26602067710294   12.83980069216276    8.59526238278629
O          40.86943914603989   14.09473877307651    8.93016242914426
C          43.36041263157526   13.50052816167180    9.59997132090605
C          44.66287581274836   13.74698845987387    9.29877618187871
N          45.47380684171261   14.59852727857037   10.04472328357043
C          45.46644838074659   14.61029542580495   11.43600131970489
O          44.79661168199893   13.59197714907631   12.01943539626649
C          46.13742612550566   15.56927956060230   12.15780977111901
C          46.98976387272534   16.49934914321852   11.44884365736953
C          47.06083864507431   16.39972003042802   10.01555349640366
C          46.31164036099936   15.46249676594283    9.36459953572803
O          46.25690597605153   15.29964310109166    8.01437049380149
C          47.89944086002323   17.33590909858498    9.32625394630822
C          48.61330411049339   18.30262759780262    9.94322442772211
C          49.41064135930365   19.23954310150118    9.08027484494472
C          48.61446611265404   20.51059915567321    8.77808213581475
C          48.58717228336435   18.39003110974347   11.39012081048097
C          47.75061994540408   17.44494284764912   12.09701146172095
C          47.67147817608370   17.56168697222199   13.52875159840379
C          46.77504318499669   16.67212366956121   14.21165096307510
C          46.05771959891696   15.70653342457056   13.59785100625134
C          45.12689802124147   14.87590742948559   14.43656052081152
C          43.68722910721203   15.37863270498143   14.31249826688993
C          48.44477752315834   18.47190664615476   14.18630299289894
O          48.44847094326229   18.66581141308327   15.53221555975834
N          49.36974452499469   19.27570946860363   13.51615949971838
C          49.30240209158005   19.31041117747327   12.11445251799616
O          49.93646936889093   20.34752391010949   11.52335610840948
C          50.26598739178899   19.99028419764319   14.24610568037761
C          51.47465182554298   20.50329736528307   13.84940356728190
N          52.23198114388153   21.23360955414057   14.74715515946926
O          53.36411799549006   21.56943562910699   14.38551857333990
O          51.75524004703333   21.52352641074383   15.84775379999385
H          10.82274635823665  -15.26364937353632  -16.31557595727781
H          11.09581839030978  -14.53291111143609  -17.76248161777421
H          13.06463847488398  -16.15022150056766  -17.33971165347344
H          10.73454500978662  -11.81015929874773  -15.66730779078721
H          11.93359140085453  -10.41277932154181  -15.14942380789861
H          14.31528248227777   -7.92531978934992  -14.47399050648805
H          13.68342872802101   -8.54255102122685  -12.96200653451485
H          12.01730097983173   -8.11815252506036  -15.48889045523578
H          12.09552848474788   -7.03144596818313  -14.10488479070074
H          11.39682711035652   -8.63284421382086  -13.90969368940016
H          18.26316444526964  -13.72676671701813  -15.77531489228272
H          16.10075911976041  -16.27024187913404  -16.81965111833256
H          17.75932238338411  -15.66511711316109  -16.76231372363416
H          15.66526736599680  -14.89409509652454  -18.84593484326881
H          17.03436225955709  -15.97634283645076  -19.10500978734870
H          17.31071437910122  -14.26071570062188  -18.77656136684908
H          19.35459612827459  -12.56705397760420  -14.78110383328560
H          16.77239105532783   -8.55336069834726  -12.39490235055967
H          18.69417222413798   -8.64072799482254  -13.06669986652216
H          18.96580255590214  -11.37733814534475  -11.65313433410189
H          20.56611424597395   -9.74121104586727  -13.63423925041711
H          20.10014701315588  -11.47025317824555   -8.66007000738674
H          21.45342226408682  -10.88524384676252   -7.51010016566089
H          24.08870060348636   -9.73059095063180   -5.45249865252868
H          22.79696765676956  -10.90770982184488   -5.69831103171478
H          22.38598201671305   -8.00163721938339   -4.86213572617037
H          22.26414451232622   -9.40667547850573   -3.80145636003589
H          21.10095224850988   -9.18352999149845   -5.11473404569544
H          24.77996219971703   -6.10449559330039  -11.68612329771134
H          23.00640368198558   -8.04608847803250  -14.01121123486571
H          24.14755094846388   -6.73008739449457  -13.72549620438788
H          21.11402555710485   -6.52449662588487  -13.46487063052855
H          22.08678369223717   -5.86985186996663  -14.78276430932963
H          22.25200753702877   -5.21380639684193  -13.14854148381921
H          25.92715187457242   -5.32026841609240  -10.44748655233938
H          25.13102077680567   -6.83273981471096   -5.38713958296715
H          26.85921884850367   -6.27740535777543   -6.29454019082233
H          25.36391547948833   -3.84715144460128   -7.48567704979913
H          28.11061014091018   -5.15658230954487   -7.79636222963174
H          25.39229752989463   -1.02251065639561   -5.98585852010121
H          26.47070374478346    0.22624623651948   -5.04120622262643
H          27.72114002495670    1.86232606972576   -2.25499021508084
H          26.70460294215010    1.95429178183918   -3.69480366950467
H          29.69007060591472    2.58639864840104   -3.59225154245074
H          28.38266482738416    3.76447401196050   -3.71563301028069
H          28.69103182720665    2.64003236460538   -5.04511672497173
H          32.47215916918044   -3.52484322143030   -4.15185334189840
H          32.44834480157348   -4.77095517246641   -6.03010605225394
H          31.03054363732171   -4.89111949968986   -7.07546640684355
H          31.35071724114718   -6.28230198347636   -4.37444407803970
H          31.51204917273779   -7.05645113481135   -5.95642255199199
H          29.95047938297387   -6.42073063963181   -5.43963124793200
H          33.22097940390093   -2.64430667679550   -2.69232179127348
H          30.05594764304083    1.21495102617201   -0.53924784976109
H          31.88661121706669    1.14701987370533   -0.59709376465102
H          32.81823550480787   -1.67587368773590    0.19515665329228
H          30.91780057923715    0.28811916037553    1.54716335396418
H          35.73045777761541   -1.77946752875391    1.64042852780414
H          36.82527754434873   -0.97608654078575    2.98621023564065
H          38.51014284229628   -0.74032480339122    4.49912616570882
H          38.87903645338962    0.79774040424021    5.28108335687398
H          39.41248055302532    0.12746257245150    2.34735289578958
H          40.62971690163761    0.19047628600026    3.62830468264936
H          39.79620066818373    1.66269110443508    3.12703500355242
H          33.04664122547977    4.86864408172767    4.55017295699782
H          30.67236245235483    2.51205881456184    3.68671430847538
H          30.95555182846235    3.46378700446985    2.24283632338712
H          30.85192001348779    4.57535520961278    5.08788919198106
H          29.58836820260507    4.68690561040767    3.86788268756240
H          31.10885990186308    5.53522603475430    3.61863256466469
H          34.33216069141855    5.91827507911465    5.33501784274386
H          39.34638080438016    3.82600544445823    5.13552010700595
H          38.66015561708787    5.13966794143841    6.23309782105916
H          37.02429586816103    7.14202522255391    4.56104773930829
H          39.92809069674114    6.17631991619074    4.54617512822232
H          36.54933400612987   10.01796776782500    5.85853296384539
H          37.36288476611847   11.48962377856051    6.64262082327872
H          38.71149759492900   13.91668628111913    8.80688843932147
H          37.32660366952349   13.36161467788546    7.86582691660851
H          39.79858621204983   14.71953640358400    6.69715891401438
H          38.22449423540742   15.47804294619477    6.94286511773692
H          38.40260366333082   14.16192185397072    5.77575274287200
H          43.96939399275803    8.91361462937636    7.77120470856334
H          42.86070720141215    6.77366189613814    5.39982332121192
H          42.22345702170514    6.05121577260154    6.86361599414040
H          44.97964165487596    7.33576527334632    6.56925783574521
H          44.60676276312862    5.62193897350756    6.68872833094984
H          44.32881421569020    6.66644192893874    8.07772014718461
H          44.63678664621905   10.19697931354348    8.90095721338847
H          41.64078838844542   14.68228997486689    8.93832618215143
H          42.86142777799192   14.03229650736195   10.40285440036042
H          45.12493417575968   13.33032665031591    8.41946998685865
H          44.57923527297921   12.92339455114539   11.34850942390989
H          46.85337208391194   15.93452445443260    7.60011550731501
H          47.96557938830787   17.27512885791095    8.24634274217272
H          49.64400092879575   18.73832775932628    8.13768034020318
H          50.34786554024846   19.50558977902671    9.56149771378595
H          47.67746597736532   20.26181379789768    8.28347070579064
H          49.18861984130480   21.16739783690623    8.12963290767314
H          48.39037825172979   21.04214240308337    9.69756889615567
H          46.67104500067681   16.76606195471038   15.28569163077446
H          45.43458488396597   14.94740524430295   15.48201231247168
H          45.17263884825743   13.83024981976475   14.14274326224182
H          43.62569603987858   16.42445328198015   14.60635302735644
H          43.02933423253606   14.79679148258896   14.95322333650275
H          43.33923479030017   15.28826268822475   13.28804891550598
H          47.80571016296240   18.07688980533812   15.94273607698308
H          50.23807506922034   20.97896699505121   12.19423718836132
H          50.00521904255788   20.13079192232971   15.28598826462090
H          51.97929470343576   20.31502279164072   12.91501745750344
