270
 SCF done       -384.608741376407          0.000490342127
N           7.70029355267080   14.93936803973272    2.68050311483476
C           8.79294222567490   14.07361897248660    2.53134204487998
C           8.66164842504942   12.70558451498901    2.31280481074146
N           7.53359454794062   11.91474594608195    2.24799218973969
H           6.57885220348254   12.22664932801806    2.28552238209039
C           7.96701109760222   10.64337839868344    2.02333430453878
N           9.25308263813706   10.54215594093279    1.95240916096701
C           9.75090550307155   11.81200192511267    2.12390005312337
C          11.08553553216585   12.24798784932855    2.12788914707848
C          11.22008932540234   13.63155726297337    2.31739495421662
C          10.11514371619438   14.50217160533874    2.50346074419017
N          10.67057760586555   15.75554951443363    2.65475419875616
H          10.17642101214242   16.62521734159557    2.75405514606188
C          12.02054529285507   15.59303437021116    2.54798497879297
N          12.38030102720681   14.36710772168976    2.35833943573082
C          12.25111303306090   11.42741843723537    1.95874855998250
C          12.22753227514307   10.09728193669347    1.75842009156689
C          13.37300978696093    9.23592978934051    1.57554027274561
C          13.14490581261097    7.88090925081982    1.28503479712073
C          14.20617715566144    7.03177503682902    1.09409011770776
C          15.52555019426918    7.50231898530070    1.19345902473480
C          15.76694070017980    8.83651546202245    1.48711875263047
C          14.69602350407910    9.68733226156485    1.67333524630957
C          16.43179718564184    6.40035873513205    0.94125877543409
C          15.66917148601343    5.24742177555335    0.68301241042268
C          14.19249789803593    5.55722341401916    0.76437427085546
C          13.50779996771146    4.74005672550896    1.87517899269163
C          14.15208372053718    4.94707887018158    3.24056336174857
C          13.48914327674466    5.29052673301619   -0.57904430465651
C          14.11605398395441    6.06094186688805   -1.73477704605786
C          16.27393066009816    4.04299304673550    0.39659103225866
C          17.66305672713203    4.01072239659640    0.37114125537288
C          18.42595086598247    5.16109067889052    0.63417011643081
C          17.82134812553535    6.36567801283059    0.92231878054397
C          19.90280285891635    4.85207646730589    0.54402695323140
C          20.59020976682644    5.69763239045402   -0.54329190887934
C          19.95131567464171    5.52351653406862   -1.91586435223812
C          20.60521255224396    5.08139443158709    1.89530062181091
C          19.97405680210091    4.28496800300117    3.03087374343913
C          19.88748064797045    3.38707922992840    0.17587131254331
C          18.56900205541859    2.91422521935383    0.08839351364685
C          18.32284398642258    1.58963242414403   -0.23467242489517
C          19.39595539481761    0.75026711218583   -0.47106199886979
C          20.71033388319654    1.21178807938634   -0.39604027199342
C          20.95010403257974    2.54906544057078   -0.06600811882264
C          21.83162011446597    0.30570532771533   -0.67401655934919
C          22.91946955743158    0.74845043917747   -1.43237795396740
C          23.95572426956989   -0.11526229000562   -1.69751492756297
C          23.93404838256050   -1.43021807602361   -1.20828404814810
C          22.86303533635581   -1.87520533121518   -0.45037357385233
C          21.82072253893488   -1.00386183008779   -0.19286952392261
C          25.14106837954975   -2.10658358138939   -1.64425763558351
C          25.90714219534889   -1.20429467111035   -2.40075622667377
C          25.21373182943350    0.13480013217025   -2.49568790506023
C          24.88946171006183    0.49416829849333   -3.95745821638244
C          24.05098888006324   -0.57076112479975   -4.65398649757907
C          26.06266082910850    1.25436654683665   -1.86597077985666
C          26.42373659963445    0.97334459856149   -0.41231537344529
C          27.12109633879636   -1.58155961452696   -2.93080968147102
C          27.54373446013286   -2.88685935907366   -2.70743226625878
C          26.76697618269902   -3.80092659965786   -1.97506088998571
C          25.56869281409532   -3.40806822209957   -1.41465185989946
C          27.47078727484436   -5.14110510854328   -1.87263269004157
C          27.72067958890666   -5.42851137336081   -0.37782402663874
C          28.47034956892133   -6.71408846350732   -0.05239919651527
C          26.71634401996186   -6.26743033134292   -2.60969743135346
C          25.35730535182188   -6.65382286191141   -2.04056680650541
C          28.74848427346052   -4.86686807882282   -2.64174395815107
C          28.76613397994028   -3.54703306620371   -3.11857383477302
C          29.83643201165539   -3.08109279216924   -3.86567530943283
C          30.88352119970413   -3.93973354592324   -4.14180127879173
C          30.86483264352454   -5.26331320116334   -3.70315078547334
C          29.77774821419250   -5.72479369157710   -2.95479525402623
C          31.96982193768304   -6.17554252284138   -4.02485668366140
C          31.70042371239230   -7.50147399839203   -4.37770291561917
C          32.74038589356135   -8.35649787215345   -4.65970255172091
C          34.06879272707526   -7.91327877049948   -4.55589780226076
C          34.34530750967173   -6.59824010280099   -4.21792892909439
C          33.29293540275308   -5.73793438537053   -3.96531804099282
C          34.95377077427467   -9.03897303236512   -4.78575237408818
C          34.16751343169122  -10.17763747048973   -5.02513940129395
C          32.69780655340210   -9.81447806395708   -5.05619190729796
C          31.86538193044986  -10.66113464681168   -4.08367526128709
C          32.39215490019851  -10.58469418195654   -2.65509172020549
C          32.22442624276573   -9.99348639598667   -6.51845002815196
C          30.82088384619419   -9.49007962413144   -6.82797090391439
C          34.75099275509199  -11.40610698462445   -5.24573276922695
C          36.13788299585833  -11.47744501603894   -5.19930180119444
C          36.92750304190491  -10.34087521850842   -4.94858000520103
C          36.34173078207575   -9.10639374981339   -4.76033443470018
C          38.39604375751602  -10.70438093434623   -4.94954581298793
C          39.20149168312339   -9.87568197017576   -5.96065957373096
C          38.67925776415047  -10.03492489643169   -7.38435580063183
C          39.01191526128360  -10.63113457314433   -3.53226315071626
C          38.99590351094556   -9.26129372712617   -2.86729495398864
C          38.34417309194704  -12.16855361652098   -5.32881285413594
C          37.01567294683097  -12.60884721263773   -5.42483221493816
C          36.73812933944334  -13.93584558482799   -5.71332187886800
C          37.79063694240538  -14.81163665674331   -5.90673529634971
C          39.11595173456121  -14.38077149706999   -5.82573365383239
C          39.38738026765518  -13.04075899850688   -5.53000585642736
C          40.22015956644742  -15.31700331963665   -6.04520316812112
C          41.31901182422926  -15.03417192197589   -6.85300649510766
N          41.61593408578709  -13.93567471368177   -7.62212009596959
H          41.03961559607589  -13.11859798277435   -7.73212046510982
C          42.80043126330292  -14.20463442357799   -8.24227340126779
N          43.29072420162407  -15.36212342742336   -7.94010082565053
C          42.39452459815119  -15.93449830557962   -7.06904603492583
C          42.46938269861015  -17.19595127967084   -6.45900469475941
C          41.37091041618734  -17.49071262887727   -5.63525732736967
C          40.29369936801551  -16.57978827300482   -5.45964158591809
N          39.43730677315260  -17.20390522512667   -4.58614083931653
H          38.58553938959891  -16.81487924010703   -4.21904782529962
C          39.99830019495889  -18.40730196854862   -4.28381615667413
N          41.12673577816432  -18.61373106645623   -4.88056209447305
C          43.60249469245471  -18.04453219678026   -6.69610533694313
C          43.80050864914988  -19.23247104380707   -6.09613809370489
C          44.93865154435613  -20.10208288004777   -6.28543788330780
C          45.86888302611306  -19.91789781167953   -7.31996184652129
C          46.93414635200985  -20.77710486942869   -7.44006417402453
C          47.12885815330026  -21.80608660287539   -6.50142323506079
C          46.21009043975413  -22.00904156367790   -5.48150276665887
C          45.11886803306287  -21.16987488549661   -5.39499767904041
C          48.37693331174118  -22.47590849419405   -6.79522217910232
C          48.95052449150353  -21.86912815479913   -7.92834755336515
C          48.03732547340923  -20.79166118031548   -8.47437604807544
C          47.52369441928365  -21.29244227599512   -9.84574022799485
C          46.43792877006345  -20.44642162818482  -10.49713016845660
C          48.74499854150196  -19.43497770532980   -8.59576310777682
C          49.35860524130549  -18.98314523233073   -7.27549178916180
C          50.16286790916150  -22.29411217255761   -8.42225807538193
C          50.80235128098891  -23.33385903708065   -7.75270265918834
C          50.23267148860325  -23.93567118799039   -6.61669708701611
C          49.01579942221658  -23.51415094436787   -6.12655498067125
C          51.15073147027648  -25.00236126554464   -6.05859640015934
C          51.65172931002508  -24.49370691391325   -4.68523932308102
C          52.72707257515887  -25.33780829440328   -4.01430480368796
C          50.45732183971059  -26.36732756478152   -5.93950039741144
C          49.83792868942345  -26.81985510254017   -7.25689973198576
C          52.25912060325236  -25.01111103452710   -7.08379784089496
C          52.05234558049083  -23.99925035022034   -8.04321674107949
C          52.95771449277333  -23.80016968390510   -9.07928834635044
C          54.06173404550141  -24.62267270675314   -9.16722031951510
C          54.24312533117715  -25.64156855366497   -8.23418519355699
C          53.34240629951363  -25.84930290160081   -7.18677540436337
N          55.37868719326305  -26.50348586450904   -8.35118674409894
O          56.14450411261980  -26.31858976102937   -9.27825111970271
O          55.52076747803113  -27.37445626859901   -7.51278193474419
H           6.87611746258954   14.49684943166123    3.06107301451949
H           7.91907507732622   15.79074390312859    3.17757868806110
H           7.28850856878383    9.81774304693528    1.92407646688770
H          12.70102562200634   16.41943906053437    2.62357031767037
H          13.17747390469490   11.98254562813185    1.99876236558277
H          11.26199310284120    9.61223418266662    1.71743513775387
H          12.12721876350549    7.52418519769316    1.20993825528675
H          16.77859434029315    9.20743030528060    1.56838886772083
H          14.88372666420833   10.72469863293039    1.90287259712790
H          13.55164978713072    3.68095647534121    1.61039602019142
H          12.45587095794181    5.02972409827710    1.92377303950656
H          15.19643335913647    4.64282597835801    3.22137266017091
H          13.63465859901161    4.35698954483028    3.99397905079461
H          14.10524482967807    5.99452613954146    3.52982972348119
H          12.43798891752614    5.57153126294379   -0.48485694616298
H          13.53164395916287    4.21970965513330   -0.79173856284532
H          14.06971840797405    7.13169310436834   -1.54945889600456
H          13.58617613613070    5.84722331170137   -2.66055800668994
H          15.15927991449787    5.77946332630726   -1.86156320725404
H          15.69554947151846    3.15327922247076    0.19471715291067
H          18.39974280330435    7.25535325980972    1.12388398596213
H          21.64417391781947    5.41439240367271   -0.59396597150180
H          20.54155043186825    6.74932346785178   -0.25256939389909
H          20.00148440758728    4.48413147267713   -2.23326864275830
H          20.46813843041047    6.13547416765789   -2.65204622968222
H          18.90600903644385    5.82330483109830   -1.89108949995951
H          20.56456580351973    6.14642815812759    2.13439743470034
H          21.65633157960623    4.80057636366121    1.79629225830834
H          18.93211357765893    4.56787420307514    3.16338982912300
H          20.50387543468590    4.47398783451694    3.96200733678867
H          20.01577722985569    3.21850375973467    2.82028236774522
H          17.31173050602744    1.21667296151456   -0.30733220180097
H          19.21664551762790   -0.27939668615063   -0.74550035122920
H          21.96702846476163    2.90591199179485    0.01534010254073
H          22.92378432505229    1.75576501449221   -1.82362920863032
H          22.83900701909364   -2.88386168628235   -0.06430593800613
H          20.98733254404267   -1.33360479008544    0.41058662842653
H          25.82729240343615    0.62966095761920   -4.50098742168954
H          24.35305605248447    1.44550906782481   -3.97408590233004
H          24.57590867091206   -1.52348143902693   -4.66715271798174
H          23.84599367125438   -0.27519158637281   -5.68060274779712
H          23.10292448176225   -0.70869580067608   -4.13881842203608
H          25.50557327581427    2.19200413252851   -1.92700702038589
H          26.97790046213838    1.37183176576158   -2.45052419446172
H          25.52551057777536    0.87114930551603    0.19275707869566
H          27.02129241341246    1.78805052636443   -0.00903292355984
H          26.99668723864214    0.05217905307709   -0.33157978656326
H          27.73089148500515   -0.89290974495822   -3.49695404608287
H          24.97539437780700   -4.07312368301710   -0.80646831123709
H          26.75381468480182   -5.44452615811818    0.12843924139855
H          28.28237235059771   -4.58214547734442    0.02739055959088
H          27.96637521381432   -7.58405786931739   -0.46539294368528
H          28.52146039804749   -6.83641693737346    1.02799418730121
H          29.48729504309435   -6.68021729504478   -0.43250416141783
H          27.35874765125413   -7.14991471712772   -2.62468988300424
H          26.58393174225078   -5.94652401486181   -3.64691539458236
H          25.43206853745582   -6.94536483619198   -0.99617223908466
H          24.96031361499334   -7.49965327685410   -2.59909960500460
H          24.65098472346014   -5.83366354015225   -2.13005521978820
H          29.85062380781300   -2.06618293274586   -4.23486705669439
H          31.71584321922248   -3.59319261721036   -4.73718711176601
H          29.77015241737438   -6.75109512679323   -2.62065987885741
H          30.67556617442458   -7.83714678784226   -4.42773597016402
H          35.36509917414684   -6.25120744797434   -4.13718810310792
H          33.49668574709033   -4.71674909584343   -3.67768028218955
H          31.87567506584588  -11.70016898534453   -4.42062247525724
H          30.83127976901485  -10.31424922786158   -4.10063409512398
H          33.41496544723699  -10.95147908778260   -2.60288515334741
H          31.77488058399814  -11.18753080256774   -1.99244173231849
H          32.38020872855186   -9.55692784876774   -2.29850809728854
H          32.28462979017887  -11.05750099434175   -6.75989341198809
H          32.93350110451613   -9.46915404339481   -7.16496737604033
H          30.07643049219935   -9.97920237465255   -6.20513684241265
H          30.58255617700312   -9.70479851773552   -7.86778697518547
H          30.75377004779198   -8.41550808054981   -6.68170986546507
H          34.15927992741413  -12.28697474286820   -5.44686078293338
H          36.92881719673412   -8.21373902147323   -4.60898744044636
H          40.24887886882749  -10.18447661624459   -5.91584215500940
H          39.15209078959533   -8.82229276952817   -5.68284272640373
H          38.71059522380047  -11.07761112824156   -7.69501747603684
H          39.28079764576786   -9.44859034736463   -8.07571718207950
H          37.64823009761778   -9.69491691794194   -7.45084248347483
H          40.04457912021604  -10.98221520201222   -3.60001461221426
H          38.46717162801481  -11.33381245111674   -2.89567800688122
H          39.51182530504082   -8.51974264474615   -3.47168743732551
H          39.50251546288331   -9.32287957513538   -1.90626459033420
H          37.97698124167850   -8.92876422971966   -2.68994753575995
H          35.71854810364605  -14.28337081779194   -5.79137356218072
H          37.58888977774595  -15.84261646072733   -6.16279755650049
H          40.41371105033242  -12.71432873074500   -5.43432398369556
H          43.26686162149115  -13.50604688182567   -8.91015526976249
H          39.53208687836334  -19.10578261435673   -3.61563217446124
H          44.31667631252597  -17.62856446773206   -7.39282935718483
H          43.05882588530221  -19.56787012581744   -5.38436188957604
H          45.73994599170335  -19.09938458576613   -8.00963292199688
H          46.34824466000189  -22.80643646910750   -4.76598505662888
H          44.39191238551473  -21.31479193346357   -4.60876147156741
H          47.14003228826537  -22.30707948362148   -9.70778124858500
H          48.38156119944172  -21.35442789247907  -10.51974334668027
H          45.53720649777566  -20.43724143492446   -9.88989025598026
H          46.18702978843313  -20.86955972845123  -11.46779560946209
H          46.77035000193516  -19.42354019233480  -10.65235742915527
H          48.02565460625626  -18.68517021942098   -8.92649721953515
H          49.52664431305961  -19.50950720297399   -9.35520686805252
H          48.59035251793591  -18.89013301305299   -6.51109851189608
H          49.84248293306830  -18.01664744156581   -7.39727067685132
H          50.10084207205615  -19.69955560648090   -6.92966993733561
H          50.61207703414490  -21.83848752022426   -9.29197662407499
H          48.56695418640214  -23.96965638555147   -5.25674231237769
H          50.78535600179625  -24.42692218818150   -4.02349334902111
H          52.03675460304791  -23.47991541283991   -4.82474464768765
H          52.39407748570289  -26.36099836032641   -3.86377213464710
H          52.95853491952281  -24.91328827416183   -3.03966222436882
H          53.64101468370403  -25.34653297828986   -4.60133818005825
H          49.67938483429693  -26.30020713024674   -5.17626672505841
H          51.18471489280524  -27.11181156906384   -5.61447641582368
H          49.08924666719062  -26.10724978961346   -7.59600359638576
H          49.36030019413048  -27.78888256672850   -7.13251555537313
H          50.59956244910922  -26.90916777500017   -8.02850181016121
H          52.79811763290230  -23.02056831547041   -9.80780576074941
H          54.79024469064275  -24.50443627840572   -9.95464277270441
H          53.51671962159342  -26.66678519730269   -6.50495003275927
