30
DimerDFTdata/DimerOutputs/63-96.log	Energy: -1645765.9450168
C          3.86630       -1.87537       -0.63228
S          2.40611       -2.80765       -0.53854
C          3.61517       -0.55672       -0.37639
S          4.70614        0.82568       -0.31329
C          3.49246        2.03599        0.14215
S          3.85230        3.61894        0.38155
S          1.85041        1.38576        0.30774
C          2.23897       -0.28693       -0.08263
C          1.43307       -1.40550       -0.11596
C          0.00627       -1.50683        0.12227
S         -0.71273       -2.95325        0.80663
C         -0.96302       -0.56119       -0.12291
C         -2.29123       -0.97564        0.22319
C         -3.49252       -0.13764        0.04323
C         -4.74691       -0.70324       -0.24108
C         -5.88051        0.08377       -0.40064
C         -5.80461        1.48315       -0.28650
N         -6.94892        2.27370       -0.39231
C         -4.55298        2.05834       -0.00745
C         -3.42594        1.26144        0.15393
C         -2.29482       -2.25657        0.72878
H          4.80759       -2.35417       -0.86276
H         -0.74740        0.38732       -0.60199
H         -4.83171       -1.77948       -0.36640
H         -6.83648       -0.38466       -0.62449
H         -7.70869        1.86535       -0.92218
H         -6.78523        3.23737       -0.65566
H         -4.46997        3.13802        0.09527
H         -2.47815        1.73718        0.39104
H         -3.14138       -2.81691        1.10160
