210
 SCF done       -278.282965814377          0.000869014773
C          14.62224190041934    2.74528545996072   -5.01482811353235
O          14.50274773682115    1.61667522482680   -5.84054974928364
C          15.69140039343209    1.28061796000132   -6.51452106115592
C          15.47432018312072    0.06475728785239   -7.38733326079541
C          16.90504008627481   -0.32406640574619   -7.87503067085073
C          18.07487303971211    0.38492620913474   -7.16997129165381
C          18.91772684303153   -0.33266501502697   -6.43193574388886
O          18.43754888678722    1.70151585634117   -7.38476649161034
C          17.54503449431533    2.82603889030170   -7.19269257682161
H          17.58903507847856    3.11782097640893   -6.13333151779512
C          16.18801797030644    2.29141614903582   -7.59643415376607
C          14.93606584862028    2.90999716893261   -8.11921259464979
C          14.08936549843388    1.96464331594886   -8.51768761971394
C          14.44680798458637    0.48399388964364   -8.49872582985832
C          13.16517976537237   -0.33674787738761   -8.35361487745009
C          18.06822265941279    3.97959777543700   -8.04729051207128
C          18.03650830774998    3.69247009649377   -9.54635732220295
C          18.61097072598515    4.85214077650618  -10.36352108373665
C          17.76554196747255    6.08222674998121  -10.27076423959435
C          18.23217604144548    7.31016457273376  -10.09593633734586
C          17.35163854608891    8.52268533766358  -10.06301957576263
C          18.06477733445126    9.83910669044939  -10.29870129550702
C          19.04544860620112   10.04521662224553   -9.09957355847243
C          19.25766175330392    8.90545668147342   -8.08550486808114
C          20.50427890318515    8.50371523057280   -7.83988905316930
O          18.31042453943299    8.38508182152987   -7.22406573734636
C          16.98331164178197    7.96062984884887   -7.61047534798326
H          17.04933552461844    6.91611468182780   -7.94168573004063
C          16.61389755796126    8.89860692534235   -8.73250594048574
C          15.32083670461809    9.47397880689523   -9.20903498056942
C          15.54188893022187   10.46644317505495  -10.06733045512530
C          16.94637746488810   10.93473193429934  -10.43203157622554
C          16.93382312424847   11.49653353222647  -11.85534736405686
C          16.12703794872719    8.04197661960652   -6.34736739099732
C          14.98319057636722    7.03307930152584   -6.31633145784923
C          14.35856524870046    6.96176984615136   -4.91605304709120
C          15.34095853786600    6.41753432893987   -3.93602696664710
C          15.72255476586339    7.03236297318688   -2.81420092552921
C          16.72467741939489    6.52137781816922   -1.92119068040338
O          17.02358548653425    7.22634560560608   -0.81267949756069
C          18.03500079720592    6.60684803433036   -0.16477624641082
C          18.38982230313555    5.47331919533033   -0.83019398609868
C          17.54794576431933    5.40510970575750   -1.97837780178180
C          17.58164004690931    4.39881008091306   -2.94518214674649
N          17.63440379104483    3.54754135452538   -3.71573387390172
C          18.54242664550267    7.20251551698418    1.10643693468352
C          19.99946241977537    6.91921538904299    1.41660083156799
C          20.14152455583579    7.26048645885626    2.92498862326652
C          19.38889537549626    8.47203518165829    3.49688474460832
C          20.00592001752070    9.31543864543280    4.31726987860100
O          18.01091263370338    8.61058569270293    3.33193855721403
C          17.52658030010032    9.22236956576270    2.11112432201173
H          16.52976084103009    8.79473167868895    1.95895227594206
C          18.54890008455398    8.75598163705888    1.09512239137431
C          18.93482883326464    9.10848117131623   -0.30348714874512
C          20.09944842765519    8.53921805981439   -0.60718621502941
C          20.88877909104308    7.75525417179021    0.42969518830079
C          21.91471651703894    6.85679070869268   -0.25982266081095
C          17.40881748799544   10.73825065562025    2.25771869506944
C          16.77249753552026   11.34959257094581    1.01069084193208
C          16.04101682663013   12.66993057130130    1.28668966190554
C          15.25705105885047   13.04956245811461    0.06776923483768
C          14.05925810333305   12.54183105865497   -0.18626618704283
C          13.25585221132089   12.82175967969562   -1.41789391907550
C          11.86609481701112   12.21715831690423   -1.38619088331273
C          12.06870801542780   10.66675590142214   -1.34012192661546
C          13.48549594583280   10.09245275348958   -1.14617206820201
C          13.67909036745304    9.21394262893586   -0.16198363125203
O          14.55097097074266   10.20038695188353   -2.02168924448372
C          14.97938983683419   11.41156079413112   -2.68325293330946
H          15.76101710942065   11.86909718673690   -2.06438023058341
C          13.72467950937788   12.24133199726408   -2.79337944090084
C          13.27458429353554   13.27675109122158   -3.77373958651334
C          11.97194112420178   13.51078690057237   -3.64583741255088
C          11.10197634928157   12.75960899398967   -2.64612712939899
C           9.94698781195006   13.66238783985582   -2.20727727600773
C          15.56693170708704   10.99172024204641   -4.03045212992460
C          16.52841558667244   12.03091919655921   -4.60038377331025
C          16.89792072902457   11.69494474104274   -6.05095462054709
C          17.75406934043801   12.75400634058274   -6.68033030183003
C          17.33097689754022   13.87382809877119   -7.25482497404675
C          15.89320078032697   14.28277333913450   -7.33936999249530
C          15.21055338985327   14.04187642851176   -8.67868085448874
C          15.87919882386647   14.98932120277699   -9.72351611795403
C          17.14345955350314   15.77985712582390   -9.34133066538690
C          18.21105350934158   15.66870927710850  -10.13097524513497
O          17.24968792630603   16.76497550298962   -8.37256348584530
C          16.72205161542889   16.67595459111628   -7.03069449122593
H          17.50199009703311   16.25371680464170   -6.38041968662463
C          15.51214203794063   15.78412484486781   -7.16256283260722
C          14.20173354763065   15.73040878717375   -6.44292598024183
C          13.33537598279458   14.97031142751934   -7.10703896890625
C          13.67891719049670   14.29049443405210   -8.42703549927217
C          12.92069161718714   12.96301816279768   -8.50589572436285
C          16.41135178574497   18.10338368270138   -6.57793773920531
C          16.40404959259675   18.21386150921126   -5.05528237154608
C          15.87218692123687   19.56454534136788   -4.55315930497236
C          16.76611213950221   20.69198889222705   -4.93740266312882
C          17.49678490457638   21.38827705072326   -4.06749444725302
C          18.34519725245615   22.44052584092934   -4.45929012116451
N          19.03850570229120   23.30106512580447   -4.76608339807105
H          13.70607782354147    2.80138705259898   -4.42881210137454
H          14.72821184290413    3.66097718145926   -5.60807640828259
H          15.48469085374834    2.65882509675934   -4.34359458474825
H          16.47115552437594    1.10573089149311   -5.75924770652861
H          15.04750369896411   -0.75986895661147   -6.81433811384782
H          17.00491003444764   -0.16870706889422   -8.95326125835758
H          17.05497209909324   -1.38989490459452   -7.70154484848572
H          18.80427475537522   -1.39294556500864   -6.30424237331871
H          19.76155056171359    0.13424915845383   -5.95686131618200
H          16.48528130986524    1.70024774196596   -8.46474842501699
H          14.72439922310680    3.96688981265126   -8.12462690880888
H          13.10615714600761    2.20148133556744   -8.89521004188828
H          14.88607254214050    0.24879833535946   -9.47942832906143
H          12.70400888932206   -0.12184658020891   -7.39287922609611
H          13.38232210989759   -1.40135829757436   -8.40975720091934
H          12.45891935018341   -0.09020766762548   -9.14396174764912
H          17.46617454045005    4.86175316805131   -7.82243464417918
H          19.09515854780502    4.18876012996015   -7.74367844270573
H          17.00824764292403    3.51261391400366   -9.86808091777977
H          18.62001978335356    2.79052818614770   -9.73920295901179
H          18.65736202008303    4.54305790884018  -11.41354497782579
H          19.62794217088276    5.07534726125928  -10.03596305206247
H          16.69858981630724    5.91857108809470  -10.37436723603565
H          19.29724501914999    7.46400649313453  -10.01338413972230
H          16.58737469555976    8.36210622885877  -10.83164184551644
H          18.64370226359694    9.82481132326276  -11.22550484723292
H          18.76138318435889   10.93849695812672   -8.53375568407466
H          20.03717195783153   10.24951807581942   -9.50519720253347
H          21.35252607169557    8.91832589048969   -8.35162683391041
H          20.69729481062533    7.75079387254100   -7.09729882815146
H          17.07700835083112    9.80949917298869   -8.34642323132162
H          14.34508624261859    9.11519084698191   -8.92706038350819
H          14.73350677891968   10.98907567167893  -10.55691079833973
H          17.19621849170278   11.76448532747173   -9.75517045386881
H          16.71063001634228   10.70789960644168  -12.57105284612338
H          17.90124917393084   11.92671056053472  -12.10450563877404
H          16.17847441430425   12.27356927842627  -11.95739355542543
H          16.79122479511427    7.84513798527747   -5.50293709467334
H          15.72972156679217    9.05099094453462   -6.23782670837589
H          15.36385265564318    6.04394023810990   -6.58135936355013
H          14.22038927116059    7.30633980578738   -7.04774992977193
H          13.48958866455468    6.29777451678256   -4.95295863501926
H          14.02295799742207    7.95137138314953   -4.60176805481631
H          15.77646055990073    5.46367862249060   -4.20022077011135
H          15.29789188902701    7.98408210853185   -2.52252033890912
H          19.14380187088073    4.76116754838262   -0.56559075169068
H          17.91424922859968    6.82654125634531    1.92200070864303
H          20.25090707214345    5.86342343057995    1.29322975066569
H          21.19403756615024    7.38635178276083    3.18148426293878
H          19.77203791683998    6.39050745831965    3.47726920918049
H          21.04564819624330    9.20974957614441    4.56895787683908
H          19.47067395305858   10.12634741696828    4.77876243580397
H          19.45671565662861    9.07606788322434    1.62869212040668
H          18.32652189157522    9.67108611541456   -0.98955329165829
H          20.54559278555693    8.62695124228197   -1.58561611481175
H          21.44447192673383    8.49202802559196    1.02839331645490
H          21.41545537900237    6.13488877264635   -0.90215851270681
H          22.50811285842673    6.31780138222016    0.47560630064538
H          22.58929797969440    7.45047033800010   -0.87273073837936
H          16.78654883578253   10.93950632874285    3.13212504963802
H          18.39541187975304   11.16838627021140    2.44230465554052
H          16.04439581854663   10.64513815555785    0.60366176775914
H          17.53546816859664   11.51553219282473    0.24905012626885
H          16.75720280587025   13.44955973294200    1.55011692386438
H          15.36090789693583   12.52555355576071    2.12865847915143
H          15.74627826775516   13.69921932322205   -0.64680277488926
H          13.59246879426465   11.91920557237579    0.56360914819273
H          13.20265977289655   13.91231867347412   -1.51472516021398
H          11.31318586021057   12.52184834385380   -0.49407836580897
H          11.64959657485159   10.20141427113817   -2.23869299703918
H          11.48943281752891   10.27328760227934   -0.50385054202632
H          12.89941087127814    8.93863119783470    0.52263529022900
H          14.63028120761299    8.72602236143185   -0.04270508735870
H          13.03204853574924   11.43847077035214   -3.05909226051414
H          13.91353225179545   13.78893747799412   -4.47212586428844
H          11.46187699352305   14.24517178188972   -4.25054130324443
H          10.66258882057579   11.90740388090104   -3.18377946240487
H          10.32803273101192   14.52807131844924   -1.66924218148585
H           9.26446611354242   13.12196493794025   -1.55523647210658
H           9.38549804361790   14.01390806949296   -3.07026455621357
H          16.09037031561078   10.04397156326768   -3.89358036944930
H          14.74581113978964   10.82311098924763   -4.73264328387468
H          17.43526527271820   12.06701125661533   -3.99380365604053
H          16.07054255080442   13.02041547722376   -4.55967815588302
H          15.97953117693941   11.56804565479067   -6.63031154295567
H          17.43780797986253   10.74655634161188   -6.05883894978708
H          18.81987482788831   12.56763862631850   -6.64312016385503
H          18.07442347014612   14.51921092944883   -7.69350991501177
H          15.36681401073857   13.70748800156341   -6.57511344933233
H          15.33467122180218   13.00959446643454   -9.01238581224002
H          15.14761748614004   15.71007810984978  -10.10467262461764
H          16.17975934411666   14.38532605842706  -10.58028003078257
H          18.22207007622482   15.02788504165625  -10.99183913316471
H          19.09531437798270   16.24983367733540   -9.93977665459918
H          15.15340873418243   16.15468377366496   -8.12621738718648
H          13.98349065841730   16.22577000985137   -5.51158023934253
H          12.33566353433587   14.79214786204060   -6.74124386538421
H          13.29233701434778   14.93650549376733   -9.22743119844259
H          13.27875601763984   12.27756931461858   -7.74037842141555
H          13.06114479604024   12.49700355425066   -9.47793633376226
H          11.85493572151381   13.11970657344725   -8.35484809775087
H          17.17511838188143   18.75566564842343   -7.00292684010035
H          15.44296302527399   18.40564426763629   -6.98345130906130
H          17.41698603844607   18.06437016978111   -4.67511929547983
H          15.77670013261594   17.42353711425027   -4.63939189604112
H          15.77481256776460   19.52413276205487   -3.46590090138979
H          14.88041343932264   19.73175843584804   -4.98213820619195
H          16.81816406830396   20.93212650251420   -5.99078586352718
H          17.47343162491410   21.18071871837205   -3.00475171859670
