207
 SCF done       -354.486784130762          0.000677299653
C          14.93765869528934   -2.43338899078209   -3.05805530713464
O          15.07713893046903   -1.10145943091889   -3.50259091788736
C          14.43572595255247   -0.15739143129081   -2.78956447086767
C          13.65127121408186   -0.25829880619480   -1.68710302598323
C          13.15317297501055    0.99866439003741   -1.23638261513011
C          13.60865231111649    2.03504798243059   -2.05781389686075
S          14.62581946959841    1.47728260376048   -3.35630595465293
C          13.26389275704505    3.35307268272131   -1.79683970882810
C          12.43605758146915    3.68038061638429   -0.71657233752635
C          11.89770464069902    2.64150275569860    0.10101463593869
C          12.29063794560690    1.29059359614516   -0.13653632751721
C          11.79063477440995    0.29444514161107    0.73907858915663
S          12.15762331186411   -1.41043907157892    0.72365492169287
C          11.13713047767754   -1.71522922150550    2.10074113221369
C          10.98413703878811   -3.10464050071054    2.61415003588499
C          10.15409742654326   -3.96092539436899    1.65568116775867
C          10.54705874115369   -0.57989728329748    2.53798235422078
C          10.90658618877596    0.56936383797921    1.78389866095932
C          10.46283793162722    1.89541060300185    1.97051373315853
C           9.51956173510640    2.37453844538166    2.91962756419857
C           9.28558455686665    3.70260884847421    2.82313361364652
C           8.35117962177339    4.54799667959531    3.61640299845259
C           7.16855390688209    5.01852285768935    2.76779251222379
S          10.23246673519096    4.42237365875989    1.55064529954280
C          10.96703173084786    2.89367946530052    1.13731615908932
C          12.27396450039060    5.08490411804405   -0.61440214472802
C          12.91502365625047    5.80380381501444   -1.58261485077791
S          13.78233377284316    4.74591055600071   -2.68366803810540
C          12.90793414877866    7.23164358870529   -1.76822033569634
C          13.94202732974594    7.95012240754232   -2.38080167414905
N          15.13845894614418    7.52388594514287   -2.89550088444137
H          15.46784747151550    6.57339704354102   -2.92378331768410
C          15.78626694801138    8.63014076745172   -3.35088240658316
N          15.11899451089027    9.72396318940060   -3.17367121930712
C          13.94474308451503    9.35908753220713   -2.56279074232042
C          12.87109941296078   10.17137324433844   -2.15682346704700
C          11.82226415466531    9.45792756758323   -1.55303805866271
C          11.84653735044728    8.05148319827928   -1.36450260624492
N          10.64280231980321    7.75473873763017   -0.77772767603169
H          10.30130298844723    6.83631600843707   -0.54970340051653
C           9.97353527490602    8.93479754022608   -0.64049561612370
N          10.63445530628141    9.95626461103607   -1.07813235774078
C          12.78163117606741   11.58825256098845   -2.33390644755098
C          13.76183540211456   12.33366963834856   -2.88864726715668
C          13.70557575140722   13.73822248641187   -3.11502175908854
C          12.68522416287021   14.63190658637476   -2.90510934107334
C          12.98578708557087   15.95938676338871   -3.28285680025244
C          14.29351446334004   16.04191381269446   -3.79183369149226
S          15.11340859845121   14.52093186584925   -3.79412925193076
C          14.80875697320489   17.24818758272667   -4.24284678362642
C          14.02985636399008   18.41490747260268   -4.22807314734931
C          12.69088497035999   18.36993985989093   -3.72342616414492
C          12.17205804864118   17.13828070629422   -3.22888676954335
C          10.85712238767545   17.13600550550610   -2.70422819922087
S          10.00096664147572   15.78902847639762   -2.00257053943414
C           8.59362426706483   16.76240568684721   -1.68461596428444
C           7.41194008433649   16.15451202461308   -1.01207731285232
C           7.71223303049273   15.83171321370286    0.45283642991627
C           8.77098541236623   18.04008350604070   -2.09174647387991
C          10.04637644020474   18.27363942559714   -2.67194135348648
C          10.54927907911120   19.48401031763715   -3.19090199885390
C           9.88596111292830   20.73835876792771   -3.27618431547906
C          10.64641339864213   21.71126066300315   -3.82720925137626
C          10.29579103702582   23.13305929017226   -4.10081736737832
C          10.29032342504192   23.42707152122631   -5.60155898990818
S          12.22330144628467   21.11585334701449   -4.26462189297185
C          11.85103384042223   19.50925371939394   -3.69487187858539
C          14.76131891238161   19.50596956203522   -4.74598526045989
C          16.03633666598803   19.19051231276020   -5.13463364510308
S          16.40003047190416   17.50431563108309   -4.87478861500757
C          17.00019617518112   20.08128720631753   -5.69084761031569
C          16.78568105493265   21.37428748550772   -6.08869755094974
C          17.93430213301847   22.02098094153672   -6.59537523121151
C          19.04000389792341   21.15712781218323   -6.56069061887558
S          18.65612338287171   19.59110033045584   -5.92961863000305
C          20.28652578727462   21.58265626477846   -6.99592833145244
C          20.47142770425241   22.88490953353246   -7.48583012463227
C          19.36307990847095   23.78922431271993   -7.54648109774908
C          18.08315439706778   23.35286759541798   -7.09878836429763
C          17.00380529999406   24.26623756245086   -7.17285137072051
S          15.34936996032158   23.99160460793377   -6.69556149819504
C          14.87768304727541   25.60369335418670   -7.15261140157831
C          13.46756269472684   26.04028204097300   -6.95356942198140
C          13.09841004864203   26.06949371554586   -5.46970963734347
C          15.92487447162159   26.30635163710486   -7.64156966901423
C          17.13828740500980   25.56695930217660   -7.66413765549388
C          18.40538252850289   25.99876839002048   -8.10713412878916
C          18.75602226892612   27.26977800677599   -8.63799263354641
C          20.06444203488771   27.37337329407148   -8.96421856025348
C          20.79758483515094   28.53919802285366   -9.53291764512779
C          21.51128070015198   28.18173706264275  -10.83630939191604
S          20.92240306752044   25.89537155129935   -8.63085929961497
C          19.48209585596253   25.11222039347055   -8.03596854830428
C          21.81853862753852   23.08736065496143   -7.85809414808202
C          22.62371185481669   21.99692166923067   -7.66119225798929
S          21.74125129133480   20.64513587107235   -6.99911354220826
C          24.02013352743233   21.90976059368765   -7.93331875385691
C          24.80981919424114   22.87915083431322   -8.49186054320534
C          26.16646658186449   22.51168821267033   -8.62986349083414
C          26.37703384491078   21.21283031215982   -8.14022070322048
S          24.92855313901412   20.47198463138254   -7.54698290473223
C          27.65000919190843   20.66104213727933   -8.12915485482908
C          28.75048178301680   21.38205467709142   -8.60704538780054
C          28.55638064956198   22.66852755257378   -9.19922965126256
C          27.25713872855088   23.25246037241786   -9.18588552986383
C          27.10394312809957   24.54311434063117   -9.74596851640555
S          25.64552345110660   25.49622544281858   -9.83475849397917
C          26.46616772155652   26.80342676212688  -10.64635656785900
C          25.67636607197104   28.01266076761133  -11.01862135021954
C          26.50337699968573   29.07902749484991  -11.72570027236043
C          27.77453797188253   26.52183402869765  -10.83795130361735
C          28.15592933678198   25.24728179463958  -10.33637184785288
C          29.42855600418676   24.64348921550758  -10.39994482521335
C          30.60567102541426   25.15483987316142  -11.01431428951470
C          31.66046440874213   24.31355731689370  -10.94323367981112
C          33.05174972840659   24.46468880401978  -11.45793179648658
C          33.27086133393030   25.76291867913829  -12.22450436033624
S          31.24295681712663   22.84614513549403  -10.09582461221155
C          29.60110072936952   23.38151076379345   -9.83160597576803
C          29.95085607229349   20.65863319501464   -8.40838195578472
C          29.78500188748824   19.42205884694619   -7.84989756985245
S          28.09333695431465   19.10386573305733   -7.51499591814199
C          30.80681351293461   18.44942786612097   -7.55716247412500
C          30.70307643350547   17.47045756418631   -6.56326178151962
N          29.69922954243360   17.17748743873642   -5.67760186425428
H          28.80725695662042   17.63955919620943   -5.61510429892789
C          30.14090811059910   16.14006360820207   -4.91305858883204
N          31.33358146612757   15.74466449072806   -5.21944006371804
C          31.73901484407216   16.54839266156408   -6.25377474555258
C          32.96397133973465   16.51901804170523   -6.93502368427058
C          33.06833823822973   17.47250974885931   -7.96045684911765
C          32.02451944860834   18.39357381404760   -8.24967921719297
N          32.48601740711951   19.12308161827655   -9.31616266685653
H          31.97906751164864   19.83277242562052   -9.81788323938580
C          33.72408198649292   18.64476770358316   -9.61349089741954
N          34.10391235317871   17.68215785211739   -8.83673091559337
C          33.97728341412273   15.57121676716103   -6.56786295063536
C          35.17796955585015   15.47762049091038   -7.16814381841621
C          36.14486236684846   14.54541138358243   -6.77474813680059
N          36.95108386977638   13.78487046003934   -6.46958435974524
H          15.51739449944315   -3.03829716973230   -3.75206100668445
H          13.89003253067799   -2.74774265289723   -3.07920078361509
H          15.33112308545590   -2.55312008788321   -2.04434294598261
H          13.43482783376843   -1.19729811765796   -1.22013427552115
H          10.49822524205376   -3.06756126887936    3.59147486130080
H          11.97019840436168   -3.55968091496788    2.73806240521473
H           9.16309203645502   -3.53157284338011    1.52619256836575
H          10.04844888738650   -4.96971828051612    2.04648827857977
H          10.63755503510352   -4.01309258625454    0.68264211280223
H           9.87849865860733   -0.54820568154764    3.37950244565543
H           9.03683501339199    1.74204838167271    3.64282712180057
H           8.88511313555153    5.42100588223341    4.00134278221979
H           7.98808690127908    3.96669877573245    4.46657893234956
H           7.52060346334987    5.61156037203175    1.92646965457439
H           6.49514585270111    5.62797398103789    3.36489771967120
H           6.61604445235888    4.16488908585668    2.38129614221000
H          11.77815831569637    5.56869195539736    0.20383570137092
H          16.75511148622872    8.58144889037190   -3.80883813953541
H           8.99494739344257    8.98863253514459   -0.20384198181393
H          11.85752072657123   12.03069528719199   -1.99037749431718
H          14.66936006819710   11.83489639987223   -3.19931513508360
H          11.74721133119046   14.30704638320653   -2.50138973176190
H           7.13156721664488   15.23354066536534   -1.52971087657148
H           6.57358542353063   16.85208304518193   -1.07353744199801
H           8.53521069013195   15.12395429687026    0.52030192344970
H           6.83786061404403   15.39568172399927    0.92961000532926
H           7.98819662951566   16.73596777863060    0.99100385153969
H           8.02118212134500   18.80382505879054   -1.98738073088061
H           8.87823364460920   20.89669613913236   -2.93602038699102
H          11.02212014572270   23.78824130049293   -3.61141267179967
H           9.31067491874987   23.34008899115409   -3.67710952791089
H          11.27449178363037   23.23803146867634   -6.02421389355800
H          10.02508552634904   24.46578981501651   -5.78238183407570
H           9.56904017028728   22.79034385722832   -6.10898233476182
H          14.39219460594951   20.50792091831088   -4.82920797960983
H          15.81440438731160   21.81897899626873   -6.01328006132692
H          12.79608039389765   25.35198059523630   -7.47450005392129
H          13.34187386047544   27.03415928107468   -7.38857758249275
H          13.20567871662738   25.07739490581355   -5.03711757174370
H          12.06965175306459   26.39715096211702   -5.34305080069486
H          13.75042821088848   26.75350374760202   -4.93094997624392
H          15.84759461297671   27.32356253162082   -7.98149141816019
H          18.04958579717461   28.07037886331072   -8.76533330196111
H          21.53800501389351   28.88791173295860   -8.80629912569039
H          20.08610974336947   29.34978268448285   -9.70545782366990
H          22.23347015986402   27.38689080655256  -10.66213838737691
H          22.03398007827759   29.04992760576778  -11.23062983008446
H          20.79440101701070   27.83982153938286  -11.57950313141434
H          22.21296257365062   23.99999644262312   -8.25623417589806
H          24.40059916273484   23.82449621552271   -8.78505199187570
H          25.23201790146744   28.43385027957668  -10.11108421379265
H          24.84756940925819   27.70421477974656  -11.66400438574291
H          27.31255833148551   29.42420062003877  -11.08657300605095
H          25.87440652108143   29.93065253580933  -11.97304212800752
H          26.92735119300767   28.68687440714981  -12.64705374822210
H          28.46688731175930   27.18743450963960  -11.31880687372715
H          30.63944606841534   26.11559383378348  -11.49309184914281
H          33.28084273620898   23.61298016155308  -12.10670542473551
H          33.74679242533649   24.41590922932617  -10.61311103634101
H          32.60341363392815   25.81944889866878  -13.08119324804127
H          34.29580071369204   25.81023539942602  -12.58367656961693
H          33.09218400510295   26.62256652309215  -11.58314159517112
H          30.92469868785593   21.07381073049465   -8.57740606450183
H          29.54199985433910   15.70616800871437   -4.13605958692346
H          34.31556545280228   19.04203875865322  -10.41556079633509
H          33.71155949485824   14.91532593529400   -5.74930510695835
H          35.43723938388320   16.13500961368453   -7.98748835908277
