141
 SCF done       -260.103881712654          0.000457055781
N           1.42600820547944   21.69579022152805   15.05358620485464
C           2.49349659506127   21.40999936445263   14.24971780183160
C           3.07172684288666   22.24212043365400   13.35355809262478
C           4.11952852445961   21.67165479327330   12.57948395635458
S           4.37446908867082   19.98867383173833   13.01912488570970
C           3.05224088121339   20.02232336038962   14.27326554979387
C           4.87496653738758   22.28864368627801   11.61584764600373
C           4.78638396589245   23.62556905320616   11.15934589696564
C           5.68873839961387   23.94302239795688   10.19161743184981
C           6.54317406149325   22.88126750344501    9.82346877160513
S           6.15733159095274   21.44340701107790   10.75437207564767
C           7.55355392539005   22.90759639652927    8.88828024638552
S           7.92833860112592   24.37266004925391    7.97930811339271
C           9.29606529918040   23.56217895054569    7.08518889049567
C           9.35726436339038   22.14518720198990    7.57617803302172
C           8.41137916955854   21.85824868960296    8.52443993573208
C          10.31869923638905   21.23110627503960    7.09814485446260
C          11.28558915832551   21.52675051458797    6.18355726102186
C          12.27227673712378   20.62505012841861    5.72958006303774
O          13.21468259126885   21.11905500997096    4.84923986699657
C          14.05143785481359   20.10021054750976    4.59531891300609
C          15.21794070556072   19.78271060719161    3.88421200218052
C          16.02568397711563   20.64695872640714    3.01186259342032
O          17.04933916867306   20.29701948370318    2.45670607039381
N          15.51942521547946   21.89770701414606    2.88057308988322
C          15.46070196211727   18.43107324655523    4.20268478350278
O          14.50056397620313   17.93628498748724    5.05208481921968
C          13.65478164043031   18.95268245853818    5.29238501971145
C          12.51346249238901   19.28253459516643    6.02212428077055
C          16.53957709935104   17.63294913275228    3.78687659013381
C          16.70472927737921   16.32371013393183    4.14075483311751
C          17.82209038419142   15.53393987935427    3.80285853262244
C          18.95977845460233   15.93667792417368    3.14941390669570
C          19.96483303640739   14.97150056317715    3.01052216060673
S          19.47475732154441   13.42811833166038    3.69602718081516
C          17.85950316554096   14.09191996238545    4.21679114772254
C          21.22298175186980   15.15250201513335    2.46312880934340
C          22.27483790998824   14.22407274523848    2.38876607020346
C          23.42469219822786   14.72867436828870    1.84677728964284
C          23.32921916256294   16.07613124575551    1.45916776318889
S          21.72224470799937   16.69425371455845    1.79227327099660
C          24.31920023733626   16.87678224779988    0.91744402990216
S          25.95813124943081   16.28078834643569    0.67935070772516
C          26.53559364261232   17.90275244251817    0.07999723039163
C          25.34503034937362   18.81755696118163    0.06886979473760
C          24.19993153382653   18.21542839460632    0.52502629920677
C          25.50273733499632   20.14947263262703   -0.36632050716711
C          24.48899520584369   21.03775853437645   -0.58322138599771
C          24.68636577343738   22.37263085964102   -0.99153654199726
O          25.96370830696543   22.89247076745412   -1.05442774854238
C          25.82018953027655   24.16423553202695   -1.46164722814761
C          26.56212264238387   25.32047545295948   -1.74027296595692
C          28.01462983741113   25.52786494456606   -1.65123852229359
O          28.57365029406705   26.57589085149386   -1.91202200371215
N          28.68963888519550   24.42624883417234   -1.24207420890510
C          25.59335703948832   26.26818508623860   -2.13064280055804
O          24.32820618445711   25.73677853285161   -2.09120430429138
C          24.46896856234104   24.46641243321377   -1.67721125511428
C          23.73552492789103   23.32276610471000   -1.36815791810028
C          25.80883570835361   27.60053604839847   -2.52174846394147
C          24.83352962448213   28.42775891780476   -3.00255983639358
C          25.04365361861456   29.76537149015702   -3.38650243340315
C          24.09912627317293   30.56953841828354   -3.97465341712396
C          24.50265654266332   31.87683763126952   -4.27641589728384
S          26.16114736049231   32.16337985388139   -3.77650806761056
C          26.35983565911350   30.45187397851088   -3.18114743314830
C          23.75439056014205   32.86110732286064   -4.89942230550747
C          24.12868382091936   34.18687122754923   -5.17038095755259
C          23.17092172846597   34.91435909732309   -5.82264790679460
C          22.00177067218639   34.19090507939055   -6.11014876828212
S          22.13477917251988   32.55235490938340   -5.50059798738075
C          20.88109562006857   34.62653199172154   -6.79645989984233
S          20.74480423571690   36.28211469055384   -7.37975078537529
C          19.11697800148723   35.95668924984823   -8.13385423618558
C          18.79447898990683   34.51216850424574   -7.88006085761391
C          19.76193553100560   33.86631207603351   -7.15065984169479
C          17.60709745549565   33.96664569505509   -8.40748699293448
C          17.20469662802245   32.66811430389667   -8.27796704914397
C          16.03244224132401   32.14101087443332   -8.85820139946165
O          15.20480476496579   32.95032554087158   -9.60726080712443
C          14.20731524428257   32.15634840303930  -10.03429469533302
C          13.03549379871588   32.17468161085336  -10.80152449709430
C          12.41433304014719   33.31134129700984  -11.51267553704472
O          11.38920909962902   33.23108142216874  -12.15330625684625
N          13.10854088862975   34.46661575944324  -11.37705249432782
C          12.56605390839242   30.85016492392774  -10.75198196234892
O          13.39362644120664   30.05452069580723   -9.99805317043652
C          14.38305036962927   30.84573563450235   -9.56687802503390
C          15.55377645646621   30.83123484267088   -8.80902036168351
C          11.41846963861339   30.29736432333001  -11.36232774939477
C          11.06647658865531   28.99765648063994  -11.25907699695497
N           9.91452708014803   28.48747847500310  -11.88879331989042
O           9.68882485430296   27.29603599445265  -11.73428411517930
O           9.21315915962870   29.23771050231365  -12.54354066845466
H           1.18526003990653   22.66641826695348   15.16621114549187
H           1.27369531325603   21.11199913672078   15.85856583397728
H           2.77505471608563   23.26664617761944   13.21821115005298
H           3.48305812950363   19.76548156623215   15.24363268392674
H           2.29923116958087   19.27531342821130   14.01476077265542
H           4.06211537257610   24.31309355301624   11.55737976117514
H           5.77779597879378   24.90749500023609    9.72269252308356
H          10.21451758251120   24.11275020587507    7.29721415668100
H           9.08728463728630   23.62030552636330    6.01544969958418
H           8.31074418953614   20.89088846490280    8.98849136130255
H          10.27491713022910   20.23403632572450    7.51190610296914
H          11.35030513666196   22.52050574571705    5.76420490217809
H          14.67605107959417   22.18135164629437    3.34619514747942
H          16.00906766263534   22.55836120638127    2.30189344423429
H          11.93376716806106   18.66192239521345    6.67126163607590
H          17.25466564783357   18.14371830123201    3.16060141918694
H          15.93410879912111   15.85326738059292    4.73759648943693
H          19.11448995143462   16.93578730843748    2.77990285955020
H          17.76847197336336   13.96869365703730    5.29761936448135
H          17.07487237499144   13.50653688969712    3.73315788433969
H          22.15282206603435   13.21733864629135    2.74848263636736
H          24.33926686869713   14.17707722391892    1.71633601445112
H          26.96075645507798   17.77068252069592   -0.91683887086194
H          27.32273135789312   18.25585429676175    0.74969633628163
H          23.25124523746517   18.71704373223202    0.61047142046481
H          26.51526408914662   20.47948346618868   -0.55886501475917
H          23.45985738030438   20.73667604339837   -0.46533642223476
H          28.21838263660037   23.56795064213718   -1.01896474233365
H          29.68926863921690   24.48017818853420   -1.14647142855166
H          22.67790717735760   23.16905498448081   -1.40604544078568
H          26.83499983935861   27.92555533116325   -2.43885410861253
H          23.83095501789165   28.03882488232350   -3.11679986407595
H          23.10026593509252   30.23867440777058   -4.20648270096318
H          26.64969055624923   30.48276995619013   -2.13002156572988
H          27.16492973157359   29.98353700092381   -3.74981593887314
H          25.09284123655840   34.56178252625292   -4.87474879527387
H          23.27196600954691   35.94435778897626   -6.11650963839583
H          19.17953038373414   36.18499180232360   -9.19964318063877
H          18.38672811586867   36.62778366561398   -7.67665983960812
H          19.70660030608790   32.82978724778162   -6.86515229157319
H          16.97577362228808   34.63791024599666   -8.97471447725829
H          17.79746919595193   31.96216608559948   -7.71807996620763
H          13.95792834460542   34.51962622944838  -10.84388421651486
H          12.75730341173294   35.29319597947777  -11.82992272610651
H          16.01243939819768   30.01381051027099   -8.29465185476021
H          10.80993037218655   30.98105690049406  -11.94171480215306
H          11.62773501002303   28.26454473131227  -10.70083704030245
