142
 SCF done       -246.330494277290          0.000587421136
C          14.71074599632509   -1.54530884222147    4.96721656843482
O          15.11720279642548   -2.19183675595871    6.16051664922583
C          14.44168707664730   -3.29079333250399    6.49948956055520
O          13.43071523681362   -3.72857144864320    5.70153309338621
C          12.95526142537598   -4.83685211591270    6.30239882066314
C          13.66000162216285   -5.10735765320458    7.48186649702683
C          14.63152567022649   -4.08943651117549    7.60263212438657
C          13.12887700078160   -6.30119290681611    8.11370711010848
S          13.60855660288861   -7.01644759771761    9.49759470941895
C          12.04901769085047   -6.72002832648731    7.21444399678880
C          11.96099725768921   -5.82524016003149    6.12946114553367
O          10.98589408819244   -6.17232617389585    5.29380232538441
C          10.41092488111611   -7.30578365351085    5.81820659737655
C          11.05398916951095   -7.66860906558773    7.01202559937872
C           9.32762772446042   -7.87537255097956    5.12529537099888
C           8.63914165674912   -8.98442470738577    5.53164925960248
C           7.54081176778405   -9.50939012933664    4.83763359200439
C           6.93240132859736   -9.06546743651618    3.64339641869299
N           7.33762839758669   -8.02800512780641    2.89679099953566
C           6.65744683083085   -7.75288225444853    1.80638919374045
C           7.19448425769540   -6.62180148413179    0.98031738799245
C           8.19859697746347   -7.15146191798298   -0.04702669983650
C           5.52292043257755   -8.52431739099214    1.42482134639228
C           4.68763231158475   -8.21283052461820    0.21881310594705
C           3.59001698124214   -7.20921833365799    0.58181238517725
N           5.11324026510856   -9.54326723723924    2.14801583144813
C           5.79884912806821   -9.83800566372263    3.26012470723472
C           5.50892066195795  -10.89738422414672    4.15106454210189
S           6.68630803599085  -10.90011638314552    5.43807564045209
C           4.47354608586974  -11.82809751604271    4.13059575760992
C           3.46475281386309  -11.82653182761227    3.19238750631385
C           2.41136801380781  -12.73582318660438    3.19784696868084
C           2.16060417084052  -13.82945119167151    4.06161519310417
N           2.94327820051339  -14.23536736851492    5.07129669141695
C           2.54546324239505  -15.27479736750301    5.77105103367273
C           3.43067949675743  -15.65776099813713    6.91900693205484
C           3.00619392157071  -14.91680678841636    8.18960708223365
C           1.33128061131641  -15.96091836584988    5.46851834143618
C           0.89132590305759  -17.16488708058271    6.24823079637902
C          -0.45438291670387  -17.70247823313593    5.78061100942558
N           0.55674186334524  -15.57402632829711    4.48038693456260
C           0.95047028088993  -14.51101641585629    3.76843989576494
C           0.23266266416443  -13.96148084813822    2.68154380170882
S           1.11598283384300  -12.60340697052980    2.03500122734131
C          -0.99630938460049  -14.40466859370102    2.20921762580620
C          -1.69693431556090  -13.82630306255326    1.17722601725577
C          -2.94415203920191  -14.24212488142702    0.72661723294068
C          -3.69458319772190  -13.63778644645831   -0.30658944843165
N          -3.31014248485649  -12.57591364776648   -1.02756906597490
C          -4.14134353717837  -12.14275642969672   -1.94886165783783
C          -3.65634582030662  -10.98433303253834   -2.76783660119737
C          -2.91215497486394  -11.48212834037890   -4.00952356378357
C          -5.40918828082982  -12.76506622626902   -2.16974730248476
C          -6.36844988804785  -12.24794871262015   -3.20153027731021
C          -7.62611025828776  -13.09976087785607   -3.30833879903533
N          -5.79540226555610  -13.80412584852758   -1.46654404042362
C          -4.94958144159651  -14.26044340113321   -0.53105834067850
C          -5.19541550133954  -15.35919857186615    0.31683779550806
S          -3.83519115769943  -15.59239710292068    1.38357044025352
C          -6.35892788147064  -16.13026526880245    0.31800450791221
C          -6.60421344151685  -17.19835145382944    1.13590166420585
C          -7.80406592583174  -17.93147570815844    1.13116779262612
O          -7.93037776019434  -18.99617572062758    1.98398306777414
C          -9.15548884268606  -19.49277927644761    1.78824658499704
C          -9.84845011770139  -18.75568000991381    0.80332434977954
C          -8.98110728841882  -17.75896255632538    0.38205907465583
C         -11.19014599399021  -19.31362873565428    0.61745038296622
S         -12.35212276413096  -18.79806244526234   -0.40473915391545
C         -11.23315054565845  -20.41980797380553    1.55197016831518
C         -10.00418423364700  -20.51761746654331    2.24531097129665
O         -10.01528851019864  -21.53096014882542    3.10791668093952
C         -11.25591415259623  -22.11572672536705    2.99731213615619
C         -12.03091685656307  -21.45316253934059    2.04795719023350
C         -11.58842433196505  -23.24280200211745    3.78655066752969
C         -10.73621476290689  -23.83744381668861    4.65905067222835
C         -11.05278851085443  -24.97107740746672    5.44770204563408
O         -10.07346697000388  -25.48688162913414    6.25205110718665
C         -10.61168175119754  -26.53619037805833    6.87400655467507
C         -11.95136881302348  -26.72158312265218    6.49009331018082
C         -12.23195329333602  -25.71195048296004    5.57078532956411
C         -12.51401537139955  -27.88005656899302    7.18538301700913
S         -14.02499107992040  -28.48094152113631    7.06877681647187
C         -11.41065569630397  -28.36240773460321    7.99770369299308
C         -10.27587312455722  -27.54869002620611    7.80310999333457
O          -9.24909856587901  -27.96907348247850    8.52895161834670
C          -9.69085086609619  -29.07501436440448    9.21876963844007
C         -11.02083365579361  -29.34407344172243    8.91400632465442
C          -8.76251593056890  -29.72425795051793   10.07769311580621
C          -9.03083323046363  -30.82052716278415   10.81665577075145
C          -8.06744477225042  -31.41200911286709   11.64138836406981
N          -7.28451213225774  -31.90662323318105   12.32145279625831
H          15.37060346828605   -0.68783314682251    4.85753431982497
H          13.67200311839372   -1.21183811942488    5.03727850214358
H          14.81497232085895   -2.21077829708214    4.10622591692162
H          15.36280305458796   -3.94505397353528    8.36815259671231
H          10.81017959394960   -8.50958021192044    7.62748506266772
H           9.02228210452890   -7.38285699811554    4.21369691138975
H           8.92567606725139   -9.49645890323433    6.43977956415983
H           7.70601809608117   -5.92812725525362    1.64925553268229
H           6.38761530894119   -6.09192996938330    0.47471813094126
H           9.02131850515499   -7.64900625323729    0.46095720676543
H           8.59883661335738   -6.33103041726561   -0.63769471307179
H           7.72865495998605   -7.86648613780285   -0.71939037781820
H           4.22147239016713   -9.14017572532514   -0.11720102090417
H           5.30340957025241   -7.81643766219332   -0.58807839078343
H           4.01797997523588   -6.27720246194163    0.94552269362760
H           2.95373768113352   -7.62110217720016    1.36131762287676
H           2.97712757867082   -6.99314038902796   -0.28974841997307
H           4.45179122951838  -12.57727391497679    4.90941344684825
H           3.47598517495502  -11.06825998257978    2.42244277253786
H           4.45273247417804  -15.36936243448448    6.66892031823780
H           3.39821963474355  -16.73428949428965    7.08759302728746
H           3.06897949709145  -13.84293133471466    8.03131258066477
H           3.65997685881868  -15.18608459765221    9.01526733457776
H           1.98293012199346  -15.16421566582175    8.46361224496478
H           0.83866148056366  -16.90302301881273    7.30818109283213
H           1.65450622230121  -17.94265807602532    6.14429784865775
H          -0.40369104663639  -17.98294123393017    4.73251025043166
H          -1.22210765012987  -16.94147717469485    5.88886548482601
H          -0.73395045810048  -18.57372553752760    6.36785245056052
H          -1.41133090886968  -15.26138321080047    2.72499225377910
H          -1.28101118929152  -12.96863759132478    0.66360536280439
H          -2.96612116031156  -10.40461464295297   -2.15361242522114
H          -4.48951952858189  -10.34644048711511   -3.06374027590724
H          -2.06035893141482  -12.08829518651919   -3.71149940997216
H          -2.55307010872136  -10.63845568352835   -4.59363503653872
H          -3.56057798611039  -12.08741715274672   -4.63912470044106
H          -5.86402104614448  -12.20866647294800   -4.17023922227896
H          -6.64134637651645  -11.22162006022117   -2.93625120343922
H          -7.36764953476949  -14.11961781908741   -3.57896458052157
H          -8.29231391585533  -12.69120553074174   -4.06421928590857
H          -8.14556173270351  -13.12434616935967   -2.35483154642596
H          -7.10028763393896  -15.81529427108297   -0.40284339279997
H          -5.84853238066395  -17.51558790893030    1.84164274830563
H          -9.15258509979517  -17.00235462674833   -0.35507183518519
H         -13.03353370042934  -21.70634735011644    1.77091098012696
H         -12.58842557131060  -23.62382686335858    3.64783200035727
H          -9.73566174362685  -23.44669473239014    4.77653796268816
H         -13.15221882233674  -25.52648983593324    5.05743181048698
H         -11.61369354487284  -30.14372339517805    9.30747120462292
H          -7.77682474807353  -29.27939702587050   10.11446547862940
H         -10.00196701875611  -31.29435837924811   10.80635980370178
