199
 SCF done       -290.220466969715          0.000446515734
C           9.34427701042069   -6.16177844540104    5.23201575288520
O           8.27585430074098   -7.04042650672841    4.96313988683477
C           8.25052609107951   -7.80381499147134    3.83406408546505
C           9.16193876779009   -7.79898588401343    2.76525847831058
O          10.21966201943063   -6.91585054115053    2.80686962433752
C          11.27523709486079   -7.03986575178049    1.87927015749821
C          12.15992332928081   -8.25618102732409    2.13921555001720
C           8.92252916514334   -8.66511508247187    1.71349412888860
C           7.83668529747463   -9.54529265560213    1.64678963183394
C           6.92771813466490   -9.53594286669357    2.72749593250055
C           7.16058660180062   -8.66983172286275    3.78221940422265
O           5.85596007311431  -10.37075787307828    2.66041953686492
C           4.93655975817761  -10.44679245805919    3.73048835545904
C           5.45776747310471  -11.27844724974861    4.89929633058675
C           7.73744390596464  -10.37797710226395    0.47374241821472
C           6.81929397259882  -11.32030617628460    0.17331142799055
C           6.84729283481587  -12.05358393106348   -1.05030497920547
C           5.92596990983224  -12.98707403083966   -1.36991750608099
C           5.85437726533362  -13.74924467925197   -2.58925813698121
C           4.76877978221049  -14.64058450881440   -2.78686107896691
O           3.87139586302022  -14.72499945521675   -1.76472028429192
C           2.74979462749157  -15.57177682465047   -1.89393982083295
C           1.93770448871110  -15.45376890762330   -0.61303771492989
C           4.65793563677260  -15.35036397929252   -3.96662529149936
C           5.59696642659817  -15.22614222163654   -4.99683723030499
C           6.68905125704905  -14.36185780937464   -4.78694093491533
C           6.80255130901284  -13.65234559036663   -3.60973983648406
O           7.64934340894024  -14.19492816598654   -5.76900314081807
C           8.62004093034400  -15.22886691839818   -5.82445107037834
C           9.36732672589097  -15.11950316845408   -7.14394271896782
C           5.47426075551954  -15.90032278084430   -6.26401595783085
C           4.65745439793754  -16.93028799319336   -6.56601744673679
C           4.55349035683419  -17.55492900715566   -7.85183813069164
C           5.37004631276578  -17.32357775879718   -8.90174482273201
C           5.27152700131241  -17.88292225162519  -10.22386742247367
C           6.30727327287327  -17.62768653825391  -11.15500082622236
O           7.35988735414962  -16.89098843013356  -10.68753838486958
C           8.48832861484963  -16.66778186318072  -11.50413388965542
C           9.38792228766957  -17.89584909671313  -11.61667917220348
C           6.18861589066869  -18.09694058961135  -12.44775243275828
C           5.07820150850680  -18.83030324997862  -12.87802279737750
C           4.05982213391516  -19.11625494937139  -11.93724780716416
C           4.17379348849601  -18.63723049541008  -10.64717099522452
O           3.00225908013548  -19.84318924796154  -12.40430429844569
C           1.99111851506229  -20.27302507536766  -11.51910739534897
C           2.43157094257915  -21.44154399287111  -10.64109049870829
C           4.91147687409388  -19.25870305893749  -14.24138876182020
C           5.79993350948889  -19.15744850937784  -15.25340509921365
C           5.47962204771241  -19.54117895261896  -16.58859810757626
C           6.32938221418564  -19.40483252332498  -17.62866876832360
C           6.02561248492424  -19.65397616028067  -19.01755942762175
C           4.95078564076929  -20.43293379620604  -19.48555538584505
O           4.13736904481837  -21.17349727512914  -18.64720912329319
C           4.74724179721979  -22.32679268932765  -18.09164549793265
C           5.00444712564270  -23.41054050260869  -19.13393083904742
C           4.66345561465097  -20.44984024540770  -20.83556400750238
C           5.39980436448643  -19.74786129952382  -21.79660619634090
C           6.54690710207050  -19.05362803925016  -21.33669234878579
C           6.82322910853670  -19.02362924132525  -19.98209963744145
O           7.32424391763574  -18.43219928725746  -22.26471926496734
C           8.48816909148588  -17.74210692336070  -21.85916285151180
C           9.15297899908009  -17.19495750471287  -23.11360610193417
C           4.91304765893948  -19.77504087310316  -23.15154518883942
C           5.40824430199408  -19.13903308730701  -24.23553372541959
C           4.82524600377801  -19.12141368902868  -25.54577366110648
C           3.65229272971534  -19.68891381946633  -25.90254097903248
C           2.97795655406162  -19.63632941656433  -27.17415669842257
C           3.45353639925992  -18.98706374185597  -28.34264737262234
O           4.68463126518456  -18.41156537234653  -28.28369820977890
C           5.22700776361401  -17.78593083530056  -29.42828225568253
C           6.61452170393623  -17.28424250893377  -29.05659219822513
C           2.67017753645934  -18.96463834271908  -29.48252914419687
C           1.41095577833610  -19.56977056757499  -29.54779600410622
C           0.94780836981432  -20.23447206248337  -28.39749753397161
C           1.72381443313597  -20.25273797520294  -27.25738915333410
O          -0.27327338348917  -20.88336852633138  -28.39726651188266
C          -1.40118406559533  -20.04246633921428  -28.21723013736152
C          -1.51251001569266  -19.49301041489054  -26.79890994242299
C           0.59611017884458  -19.55112218133926  -30.73826512897656
C           0.70411870206887  -18.67733415911074  -31.75969245979104
C          -0.12979744067764  -18.63422436386532  -32.92510287704052
C          -1.11514078194976  -19.50122100189227  -33.23333404687234
C          -1.97310860132725  -19.43287807263302  -34.39289540632515
C          -2.66389665995302  -20.58320489511630  -34.82051293541076
O          -2.50757346662565  -21.79090047399860  -34.16983785766201
C          -1.30395683925571  -22.48227443192324  -34.46359657318539
C          -1.28626193405177  -23.05524016537155  -35.87694321152235
C          -3.53400862982442  -20.50022002889320  -35.88630896913020
C          -3.77292028272774  -19.31013630554991  -36.58463324909474
C          -3.05926031741573  -18.15707856537304  -36.17035373150506
C          -2.18960607194689  -18.24576120515204  -35.09645731376883
O          -3.29739538466814  -17.00400093392983  -36.85118575226518
C          -2.55992204004501  -15.83100697604734  -36.56907996168819
C          -1.14458293575761  -15.87238008380023  -37.13787548706500
C          -4.72105104638121  -19.36257278702499  -37.66621594960178
C          -5.16556788428067  -18.36511772441248  -38.45999530008966
C          -6.12196383393468  -18.59236259150043  -39.49387453231292
C          -6.59374961111022  -17.61725340716684  -40.29811695300332
C          -7.53301544101433  -17.85917834188526  -41.30645876312888
N          -8.30175689225215  -18.05064690323621  -42.13941870903729
H           9.10426176885406   -5.71134395011994    6.19547103467431
H           9.42776319565073   -5.38109853162932    4.47383567389427
H          10.29518901231691   -6.69388585253509    5.30679388503986
H          11.85560390849328   -6.12309045839329    2.02018776936562
H          10.89494000218766   -7.04557098602924    0.85013783907420
H          12.57397676681926   -8.20461819673380    3.14336937198992
H          12.97598320715147   -8.27478659659254    1.42197794157200
H          11.58863422773114   -9.17695319736010    2.05030355962627
H           9.60124194045834   -8.67271788684788    0.87544499014513
H           6.49579223811132   -8.61874760928935    4.62841029129660
H           4.06000673203985  -10.93560042432045    3.29397023101003
H           4.63950975054013   -9.44495608239960    4.06254104223561
H           5.72074820188016  -12.27456117168485    4.55213949637834
H           4.68795581405256  -11.36087010241103    5.66182668808021
H           6.34236642650621  -10.82321802491564    5.33674986628063
H           8.52162937400153  -10.20308624430112   -0.25604085276912
H           6.01900865840107  -11.54307877436705    0.85905081328176
H           7.64978950564098  -11.81568581448536   -1.73586442622478
H           5.13665465068700  -13.19136855400025   -0.65990533326502
H           3.07394331543724  -16.61192226461277   -2.04142899537651
H           2.14102429551487  -15.26680527359939   -2.75691374091826
H           2.54275746943227  -15.75348572955594    0.23832740031159
H           1.06008936094689  -16.09139562072642   -0.67024162625541
H           1.62270470495066  -14.42392811755986   -0.46878118506210
H           3.81359842364026  -16.00019718348928   -4.12861944481683
H           7.65048142998886  -12.99607146818497   -3.49506209663624
H           8.13407226288906  -16.21130532045731   -5.74157060361094
H           9.31714627401267  -15.12166765958631   -4.97871288050796
H           8.68639224793953  -15.28149312829929   -7.97568987872725
H          10.15859651031744  -15.86326895451343   -7.18264970681511
H           9.80102141232076  -14.12776433864854   -7.23966910612204
H           6.11718652534117  -15.50170401275468   -7.03616509943932
H           4.00806476190943  -17.33563388332409   -5.80055500288597
H           3.75015642018114  -18.27416395452782   -7.94601360448198
H           6.20392012571979  -16.65029313107525   -8.77412354617508
H           9.02877299033224  -15.86056084559432  -11.00026678940513
H           8.18784477216415  -16.30919649305116  -12.49659441456812
H           9.70474400881563  -18.21054148347419  -10.62547785749310
H          10.26651520431978  -17.65395855338095  -12.20861211726185
H           8.86022972798372  -18.72267539923513  -12.08567847499179
H           6.95293431491389  -17.88081077169846  -13.17507389459786
H           3.38814756500567  -18.81600417056457   -9.93266560507161
H           1.17799353848574  -20.59292559146894  -12.17747197569623
H           1.62603411991626  -19.43842311239431  -10.90744120199311
H           2.75234097738121  -22.27040404310224  -11.26716456631747
H           1.60105556765850  -21.76758660422175  -10.02078595296709
H           3.26227430945330  -21.15565449309486  -10.00058999366532
H           3.94606835979478  -19.69456504899945  -14.45886569028234
H           6.79280602205476  -18.75902792155502  -15.09006966522668
H           4.47995353552194  -19.91348109744494  -16.75838438307235
H           7.31181117525703  -18.98452661939435  -17.43985679493512
H           4.03707552932714  -22.68273675971891  -17.34068821573359
H           5.68718972784559  -22.06037935837436  -17.59050266132583
H           4.07566733298513  -23.68267048524906  -19.62918114269423
H           5.42014032213297  -24.29132503676947  -18.65209775152555
H           5.70701186351628  -23.05324615074043  -19.88431017025828
H           3.80838129697728  -21.02832599546189  -21.15347448438875
H           7.66825408208164  -18.45693138128281  -19.62172556093885
H           9.17242358294970  -18.42523876783864  -21.33675342877727
H           8.22559170021006  -16.91771436587091  -21.18145354446445
H           9.40233105117972  -18.01077643079108  -23.78679399911163
H          10.06090429677773  -16.66087673190126  -22.84834650731982
H           8.47699802473200  -16.51566399747762  -23.62590407800237
H           4.01271525973397  -20.36503813289983  -23.26887921719602
H           6.31440738054397  -18.56501466573190  -24.12979486280793
H           5.38142410090790  -18.57055445585521  -26.28675271323065
H           3.09982522705215  -20.23791858405040  -25.15036400973208
H           4.59198867407408  -16.94422758151724  -29.73915812744590
H           5.29516918643101  -18.50345110513872  -30.25779809857638
H           6.54554967987042  -16.57246423369767  -28.23830499254056
H           7.07478005767881  -16.79932154162072  -29.91275378383635
H           7.23673518577232  -18.11746364999052  -28.74117252497776
H           3.04131878872402  -18.48709024828540  -30.37439558292168
H           1.33781098197752  -20.76926515557796  -26.39095047622430
H          -2.25985249615280  -20.67933428168384  -28.44568365680315
H          -1.37435210703824  -19.21073244612044  -28.93565887485781
H          -1.53974055645332  -20.30983387821734  -26.08198268702395
H          -2.42418701148753  -18.90935278394442  -26.70440217236956
H          -0.66062022820481  -18.85534745946614  -26.57123502625133
H          -0.17908795610541  -20.30474567004548  -30.76186505086342
H           1.46026092663468  -17.90431875094639  -31.71018110239983
H           0.08583656140088  -17.82281043055663  -33.60921205333813
H          -1.30819675669489  -20.34361689974773  -32.58351662868957
H          -1.26005178255759  -23.28765085547466  -33.72613091536802
H          -0.43838275245788  -21.82054279825072  -34.31986494675410
H          -2.13815040077029  -23.71437973180226  -36.02452034878659
H          -0.37116306888598  -23.62032943222274  -36.03114164658743
H          -1.33333908713983  -22.25335962532171  -36.61136960604130
H          -4.06069280888007  -21.39566670615840  -36.18156173224763
H          -1.67891788104790  -17.36395025624633  -34.74650395417595
H          -2.54756327035282  -15.62563554704930  -35.49192977021052
H          -3.12930406999300  -15.03502045516256  -37.05828345601213
H          -0.64465390580418  -14.92748292971923  -36.94311120082657
H          -1.18434586440644  -16.03621773333741  -38.21185086494108
H          -0.56718328243480  -16.67792448286595  -36.69114432274720
H          -5.12652393697123  -20.35331761465748  -37.84348130399094
H          -4.81044694130624  -17.35590775380574  -38.33141321487189
H          -6.48114686622776  -19.60546110646492  -39.63003588137493
H          -6.26218502676156  -16.59200579714523  -40.19471840985892
