201
 SCF done       -318.454102725543          0.000561789811
C           7.49084007893642   -2.03817356910628   -2.18891920605200
N           6.07210384307121   -1.75010553974157   -2.27912683087172
C           5.81544621766229   -0.40684952115113   -2.75170600437144
C           5.38706389894882   -2.18862347476764   -1.12018303716291
C           5.20423471050445   -1.40749624438709   -0.00290636842816
C           4.70326896128989   -1.94908232990135    1.20896891018194
C           4.54679430368089   -0.93176409489140    2.20754335359352
C           4.94357902914704    0.28466218388550    1.79683279104428
S           5.54895486786100    0.30404770375951    0.17592293622734
C           4.53240161549664   -3.31838231527245    1.35274124458557
C           4.19001342110676   -3.79782873911847    2.73745270948375
C           5.41274675914615   -3.76712154922217    3.65757697461201
C           4.68545520412473   -4.15391046325412    0.21694938100187
C           4.94797024515002   -3.54943561093643   -1.07357839235193
C           4.72778392243295   -4.28058640443378   -2.26989253685032
C           4.59118076215928   -3.66035791659030   -3.63612636946078
C           5.77808837440888   -3.93867491585723   -4.55959796278577
C           4.47905046326343   -5.64201307077586   -2.18404201925517
C           4.47898802844857   -6.26843753460737   -0.91769827195778
S           4.27330947621937   -8.00067596932342   -1.05419795337136
C           4.11672891836758   -7.85586420535706   -2.77584371337304
C           4.23070823485210   -6.59413099342713   -3.22684098669663
C           4.53626133881095   -5.57124317528297    0.26767067049807
C           4.45477477345664   -6.41663230208823    1.46300283182567
S           5.88486696821015   -6.87543882292807    2.33650549035481
C           4.97778223665381   -7.93977421414720    3.38747048057012
C           3.65381375468380   -7.96155862150776    3.01683702022131
C           3.37045231994555   -7.11164816281765    1.92436700854787
C           1.98029724353833   -7.07817081269877    1.38876447589309
C           1.53138389361751   -8.54369656760001    1.25542845669994
H           2.26076727219798   -9.07723670213167    0.63281298327456
C           0.24706671267171   -8.59098403825809    0.60682714475334
N          -0.78608582934545   -8.59749256893034    0.11467570410223
C           1.47340182793724   -9.25320087211829    2.63515725849739
H           0.47711614125683   -9.06617443685532    3.07501489599253
O           1.66253995203297  -10.64632837871096    2.50861108796928
C           0.59285729272504  -11.35184874883704    1.93168152423078
C           2.55772621025517   -8.77117324560351    3.62702001501783
C           5.69866771834843   -8.58282226223799    4.44420526497726
C           5.17176388665069   -8.94103707842310    5.63246907377131
C           5.86837791815174   -9.44990937061850    6.78766882384739
C           7.23897130572880   -9.65551345181482    6.84985200181743
C           7.90878093880938   -9.90179884091986    8.07704008350028
C           9.30274905113905  -10.16926114210392    7.87911265489321
C           9.67235601903577  -10.11659649992615    6.58879974112564
S           8.36771923035153   -9.73191896868050    5.51737150532381
C           7.24279581356245   -9.75328800803782    9.28446725455366
C           7.99064753672863  -10.07820426238092   10.54757971181094
C           8.19989242001020  -11.59345237787399   10.64609221184378
C           5.86331926636651   -9.42801208191523    9.25915473044871
C           5.13917472147606   -9.55982237261522    8.02375887156223
C           3.73608425329442   -9.76114742158919    8.07915003929704
C           2.93131953569178  -10.48956873709031    7.02683950658838
C           3.68926694001140  -11.59925404650149    6.30141078635920
C           3.06628171210481   -9.38432691227076    9.23710700023181
C           3.79388903921379   -8.87483064102204   10.34106222775467
S           2.73107886814632   -8.24450164496974   11.58044642768378
C           1.34920239330337   -8.72301735685359   10.64841478887431
C           1.65569435354960   -9.31220448368352    9.47797686648290
C           5.16582194528635   -8.96756929896850   10.41436111862494
C           5.82916998975177   -8.31242805399097   11.55682144076973
C           6.61856014728946   -7.21824327040514   11.27049630177172
C           7.20054654875943   -6.41468409758364   12.28262275705289
C           8.04311388315852   -5.40041798820759   11.72250060456894
C           8.05364151818320   -5.41382230108414   10.37795306203394
S           7.08355467838021   -6.67071748687866    9.67521628445825
C           6.83316237776576   -6.60042184304941   13.60632802323235
C           7.62511542550907   -5.88443311341537   14.66435475713761
C           9.04490682770324   -6.46029170520871   14.71165869049317
C           5.81553476928992   -7.54750321011312   13.89326619413936
C           5.47721336704919   -8.55068696714354   12.91800059041527
C           4.78282535780384   -9.71761257811231   13.33339489693088
C           4.76134838977089  -10.99519264948062   12.54049079110583
C           5.64897367783335  -12.03893716171080   13.22655257870961
C           4.17035028511076   -9.71991310731652   14.57698052103326
C           4.25902672143385   -8.57655613413108   15.41021097045483
S           3.23900782913848   -8.72496524935236   16.81954124454909
C           2.74796702439606  -10.30864785037565   16.31050758381937
C           3.30205516499276  -10.70512791391473   15.15086819264190
C           5.07227486040619   -7.50900545250242   15.10901570312676
C           5.00113258872020   -6.30442497044985   15.92497486201033
S           5.31102896767748   -6.32582583503491   17.63442639285618
C           4.97556251581273   -4.62237318604852   17.75980382737775
C           4.61634470915563   -4.09852246299412   16.53983702150171
C           4.61879188027504   -5.05676829193730   15.50137294284812
C           4.14203810221714   -4.72988591157753   14.12195817309813
C           4.27589619051408   -3.22560303047333   13.84554837707278
H           3.79117375790739   -2.99091827448869   12.89100382699175
C           5.66678577803140   -2.86573049498054   13.74643782277005
N           6.77747950736077   -2.60488608712473   13.66660795741409
C           3.58046482321915   -2.42654285889637   14.96590347164502
H           3.62156786599808   -1.34879517825758   14.72567417051480
O           2.23236074171742   -2.84908453821762   14.97040709750120
C           1.34081286779901   -1.99237603500747   15.63376777532259
C           4.29922066657881   -2.65361871111836   16.30299294677365
C           5.06956969846507   -3.94198600489059   19.01560013769882
C           5.25841062888468   -4.54826906899587   20.19274686562478
C           5.41297987439205   -3.80541064919185   21.45454914438845
C           6.63416058967922   -3.19047379758569   21.61481182425457
C           6.92176559350428   -2.29824354656373   22.67363515495692
C           8.22035163642548   -1.71656950672498   22.52084735568533
C           8.87060360891975   -2.16493451709487   21.43032966732558
S           7.95764012637366   -3.28952070558141   20.47755321250716
C           5.97759664213282   -2.10136652065972   23.66982022902605
C           6.13326769140416   -0.89320191679327   24.55288526160273
C           5.99780092195495    0.37836426579196   23.70630635636476
C           4.82931872189786   -2.93023782494981   23.67703006551334
C           4.44824286400334   -3.67216231699175   22.49128787707871
C           3.13410083470739   -4.20376900149115   22.39531812725377
C           2.60195349870263   -4.91235927466061   21.18172816751080
C           1.93149905450052   -3.92403330883016   20.22517761240121
C           2.25296860682006   -4.03454440836134   23.45293987603875
C           2.72593099914842   -3.54353048212841   24.69810179681729
S           1.50103987482680   -3.62906072876932   25.93281048576354
C           0.36159126084835   -4.24048381178318   24.77711092628442
C           0.87347174851466   -4.41375369023429   23.54580839039010
C           4.00691688235939   -3.05778721364937   24.83448085409742
C           4.52306855569541   -2.89627371335753   26.23653821049048
F           5.85914293969953   -2.92457330036916   26.34198019097012
F           4.10723819256880   -1.77598272634994   26.86767002363437
F           4.10177416949104   -3.91190250693530   27.01864944719308
H           7.95877185207173   -1.83037162752095   -3.15119233858627
H           7.63309661295979   -3.08772624695419   -1.93638451880014
H           7.98938549209437   -1.42315258217611   -1.42432868646452
H           6.06349908364655   -0.37253394983295   -3.81515072520472
H           6.40945239380735    0.36126658921976   -2.24049819491714
H           4.75977759108035   -0.17049517632644   -2.63287234866566
H           4.14017581688167   -1.10612843209679    3.18654438805525
H           4.93272823923046    1.20597730298112    2.34660702297192
H           3.78200423517772   -4.80276729462274    2.71248083490050
H           3.41443958349842   -3.14784701629975    3.14956772428243
H           6.20827505559466   -4.38673418528591    3.25225964946992
H           5.15101052978278   -4.14429285156622    4.64380498144157
H           5.79416102713945   -2.75417884157243    3.76055105446332
H           4.44584115191128   -2.58792837002490   -3.55292863571450
H           3.69093145640522   -4.08483575116635   -4.09070832695323
H           6.66625738810082   -3.43623790253691   -4.19677871989909
H           5.55882278645394   -3.57512341163968   -5.56127925222970
H           5.98846137834024   -5.00372941156081   -4.61626825406338
H           3.94453945924790   -8.74793568465133   -3.34636150858372
H           4.14863228529686   -6.34109460406400   -4.26767120830625
H           1.94049448363932   -6.57627938502473    0.42064571302846
H           1.31030683976714   -6.55119149930242    2.07584095959893
H           0.83573967154052  -12.40736470431929    2.03733205250069
H           0.46466199812623  -11.11546721131673    0.87027145004217
H          -0.34853941019505  -11.13861000519894    2.45234017082161
H           2.97857048848363   -9.67110904788352    4.07651859281655
H           2.07544967319477   -8.17869212627377    4.41114221648790
H           6.75338975002897   -8.69218257068670    4.24642464269940
H           4.13804029271081   -8.69521073380647    5.80598385943774
H           9.99467454785271  -10.36897969920260    8.67618269877668
H          10.64848584934750  -10.26731822600952    6.17010350249206
H           7.44139109813827   -9.75292685752714   11.42731414269691
H           8.95697295576153   -9.56938228169326   10.55285340389796
H           7.23958736248278  -12.10357680751687   10.66081129331929
H           8.73657119624915  -11.83813483868675   11.56013596990422
H           8.76703832557460  -11.97175435454692    9.79983676437435
H           2.49053031685838   -9.80121120412873    6.30267680106042
H           2.09598282755264  -10.96282530639439    7.54795845167907
H           4.46057858577288  -11.21080176559164    5.64370078927610
H           2.99173499693243  -12.17804900596981    5.69934753799607
H           4.15788021064656  -12.26486572668679    7.02330530479863
H           0.37373954599310   -8.52394793914567   11.04851433293385
H           0.90674991028310   -9.64579520332508    8.78268654656523
H           8.56488836738196   -4.66759156811520   12.30924608042297
H           8.57834630925218   -4.75198522568399    9.71645415453706
H           7.18581696027933   -6.01833688761508   15.64757861313413
H           7.66712082748014   -4.81470846979631   14.45225056397916
H           9.00993196541340   -7.51990297351740   14.95791247777822
H           9.62425049785599   -5.94752425097018   15.47560111355843
H           9.55081279511050   -6.34821042105774   13.75648651472345
H           5.13508232411201  -10.83994820632351   11.53172588541389
H           3.73889785404094  -11.37218929206381   12.46353013816958
H           6.67190988102481  -11.67527887501037   13.28971306735901
H           5.64500122308493  -12.96590162119507   12.65720206156448
H           5.30462531266069  -12.25062398456972   14.23518712176941
H           2.05660903597347  -10.84858310864209   16.92835739140436
H           3.08063578795681  -11.65150325642800   14.69246827740858
H           3.08203135988750   -4.98880824326489   14.04598932746420
H           4.68553262699812   -5.30116940864909   13.36852556337249
H           0.34421050094803   -2.38141422772328   15.43398719788004
H           1.41555816160421   -0.96698197838703   15.25017928282917
H           1.50608466795930   -1.97768493961483   16.71687831710219
H           3.68245864393907   -2.26259394005998   17.11488919938796
H           5.23249794483756   -2.08024519300187   16.29169466207710
H           4.94387279035689   -2.86775350605234   18.98312361066676
H           5.43591298682020   -5.61736215647342   20.22862932298884
H           8.65452452065946   -1.03211412377519   23.22636125103449
H           9.85948187411273   -1.90692675270738   21.10371160442358
H           7.10529431349643   -0.90673832348509   25.04860721894833
H           5.36291559112040   -0.84354102015890   25.31423140654517
H           6.75249594230305    0.42139015438140   22.92575764946525
H           6.10182687277966    1.25491176731038   24.34116890477100
H           5.01736795313012    0.40906190887102   23.23503887022974
H           1.87419430423069   -5.66165249020432   21.49483642290890
H           3.39719243885213   -5.43077725457832   20.65439823887945
H           1.10945054110910   -3.40892253616881   20.71693717765666
H           1.54748207611066   -4.45069837779345   19.35464284690422
H           2.64969719918349   -3.17996222958991   19.89025617068229
H          -0.63952801192155   -4.43880455548500   25.10732824675394
H           0.29341727333899   -4.78170477319948   22.72002235699176
