124
 SCF done       -219.027547289487          0.000675322736
C           4.35580061767113   -1.06297024170686   -2.47467891827615
N           3.85221120377160   -2.39023935336831   -2.72939927614045
C           3.48248052638103   -2.67879540128843   -4.08966936030198
C           3.82110040767880   -3.29474938504907   -1.74054784500755
C           4.31019699171170   -3.13091963979144   -0.44915413186527
C           4.08770106507473   -4.30421927822539    0.28430308746064
C           3.38743628700231   -5.23972346512504   -0.62764431017041
C           3.23701131452953   -4.62483915597746   -1.82877975914497
C           2.89981099370239   -6.51235243602342   -0.31720994522341
N           2.47282415124056   -7.55611672642153   -0.09449623223228
C           4.44863706669560   -4.58222776329714    1.59378772828356
C           4.34323117154852   -5.81935574519039    2.26907590145352
C           4.84190608774093   -5.68180877053053    3.55746103323641
C           5.26825648967898   -4.30515838899830    3.71255916538274
C           5.04321071833096   -3.63802022718473    2.54673316211934
C           5.30985059134736   -2.28558197406763    2.32092139608472
N           5.53443917712506   -1.17136379228133    2.14678855890840
C           4.98683981913629   -6.65016457139587    4.57761294071846
S           5.82788270765219   -6.20973307603008    6.03449997686330
C           5.66633401740751   -7.81713027301390    6.68829517186788
C           4.98602162744903   -8.64566258205369    5.78853069672810
C           4.58459549351965   -7.99016223670258    4.62259210442754
C           3.80064755620625   -8.66249703616151    3.54495824594302
C           3.26038241244746  -10.02008534044922    3.99027420140693
C           4.33665049500017  -10.81353946217599    4.72660938248203
H           3.95371254675528  -11.80745480881183    4.99194986998055
C           5.55208742588145  -11.07635576769497    3.87318246664914
O           5.64075999369989  -10.89757675173283    2.69255810524825
C           4.73114787617212  -10.10025025555322    6.02350645109655
C           6.21637640573661   -8.09685172487590    7.95673600553653
C           6.15887519677507   -9.25488356338284    8.71804400713055
C           6.91505980797816   -9.08076244415042    9.89614820101841
C           7.44000332054738   -7.70323086107623    9.85388305331161
C           7.01879396403235   -7.13266813085873    8.69559982247522
C           8.25202854367349   -7.08687921017607   10.80990831935184
N           8.92200947543570   -6.56366768299403   11.58415809770727
C           7.18034209595529  -10.02654942680384   10.87271798310690
C           7.93811583605151   -9.84832832438596   12.05229480865712
C           8.04233110203073  -11.05892161199583   12.72010168720329
C           7.30467984218596  -12.04429191868043   11.94789818619569
C           6.78326726332195  -11.44276181395794   10.84471869307835
C           6.03882498900115  -12.07893564349600    9.84814540070784
N           5.43409283908389  -12.61374990118755    9.02901834872112
C           8.73674919903140  -11.37832465487910   13.90926317577684
S           8.63064846591384  -12.99860051400396   14.53461379125578
C           9.69297965686937  -12.62104084218976   15.85832559725494
C          10.07869203354516  -11.27783870272122   15.81640796953526
C           9.56057637884517  -10.58774658283826   14.71876157541558
C           9.86566604243634   -9.14870940048566   14.45125190804776
C          10.95998807738145   -8.60973723771501   15.37160643444203
C          10.73390132958610   -9.09705082777414   16.80475649808906
H          11.46118214088637   -8.61806949437957   17.47028574794308
C           9.36650313056304   -8.67603412343453   17.28124081083699
O           8.52549589078181   -9.40492304669917   17.72379326901976
C          10.90300337455818  -10.61373943081502   16.86964010252511
C          10.06716891481303  -13.63975881570239   16.76124023350061
C          11.07733843015951  -13.64264866601901   17.70509197561024
C          11.11943126536853  -14.90556034095292   18.34499084885624
C          10.03156246652386  -15.70681693391717   17.74958511013442
C           9.42242669467108  -14.94640751082768   16.80508784550046
C           9.66514575020149  -17.00829594421861   18.10645776457326
N           9.34549451727286  -18.07383607076784   18.39563600723283
C          12.01542527816550  -15.32354621114657   19.30618067765263
C          12.12428221929507  -16.62183974972679   19.88059681032374
C          13.16370232572989  -16.63217727610155   20.78353230654425
C          13.74666593164068  -15.30171294813105   20.80250384230539
C          13.07163638440130  -14.50972899824959   19.92570860119140
C          13.34073731021257  -13.16063919984365   19.68016713912188
N          13.57803671644958  -12.05254499188123   19.48565834528402
C          13.66237604630361  -17.70510660782301   21.57945171932086
S          15.15731075579515  -17.46965839917402   22.44847815645920
C          15.08215542192931  -19.07682708378460   23.05607259632588
C          13.97130580092143  -19.76149899385154   22.62699190283768
C          13.15106829364434  -18.97528588987021   21.78769124600633
C          11.87826960889308  -19.50541931954216   21.21106659967564
C          11.44340437373336  -20.80250362940812   21.89200390045559
C          12.62009622758628  -21.77648832721261   22.06141733269557
H          12.23733460814008  -22.71615084010294   22.47097587325825
C          13.22257027533465  -22.06795522448375   20.70867838884611
O          12.84936149641863  -22.93022477558943   19.96697667924584
C          13.65009156130545  -21.16948766111810   23.01381979524259
C          16.14587011710305  -19.60396957670185   23.94525735956831
F          17.05638943876863  -18.68266132716876   24.27557012401004
F          15.65306979403008  -20.09098204416141   25.10270637401340
F          16.82509879644959  -20.62921021540212   23.38662061331066
H           3.99379695227485   -0.38741000500845   -3.24725251701854
H           5.44963250830223   -1.04900290891468   -2.47758138121893
H           4.01003199205513   -0.70731922237823   -1.50483874660968
H           4.26721200839751   -2.32843893162316   -4.76385206060898
H           2.55019814808116   -2.16887356369528   -4.35119888395396
H           3.35384473179909   -3.74604118986393   -4.24123867001556
H           4.81871041185685   -2.27028810832792   -0.06716081852597
H           2.73861135644535   -5.04567968850620   -2.68181485018675
H           3.97806372107429   -6.71488524512420    1.81430971766512
H           5.68661596474156   -3.89266634090952    4.61249528631885
H           4.44526428215098   -8.80510169092958    2.67301297999403
H           2.96930802578927   -8.02357067167784    3.23960658868847
H           2.92515249468891  -10.57098664479326    3.11156038297420
H           2.40632279553416   -9.88222717729905    4.65636866352970
H           6.40139652844087  -11.49307825049751    4.45280299946046
H           5.62533802655336  -10.56896462730550    6.44049617609532
H           3.92887903621115  -10.21264331089708    6.75891251776929
H           5.61472567484355  -10.14712923016868    8.49605839421250
H           7.24046667957506   -6.13776193370062    8.35511319162403
H           8.33483387371145   -8.90499334483114   12.35858623241094
H           7.20718080561827  -13.08038251259673   12.21613540031370
H           8.94904728919076   -8.56594905081161   14.59017712893971
H          10.17760153731546   -9.02518901916551   13.41173372131954
H          10.96118145953620   -7.51999872328422   15.32928970160005
H          11.93630925519900   -8.96200570496919   15.03402997500401
H           9.19129069563621   -7.58535331687390   17.18768163144951
H          10.58707123706193  -10.97183499730082   17.85184326189493
H          11.95833003548764  -10.86898265626485   16.73986429573975
H          11.77385015355207  -12.85714495469593   17.90411987256385
H           8.58787687188956  -15.23250223403421   16.19129122128315
H          11.50356232488612  -17.44490426842358   19.59833618621292
H          14.57417576905267  -15.00807915882622   21.42214844855296
H          12.01547756854507  -19.68288081412534   20.13975041150706
H          11.08651068291912  -18.76049687112036   21.31721613856383
H          10.65804447754995  -21.27203262364344   21.29937229987484
H          11.03824990454909  -20.58097838872695   22.88163919023071
H          14.06022930926552  -21.39650775301278   20.43292531967305
H          14.55992387587784  -21.77397949461189   23.02715548295015
H          13.24706147911319  -21.17188077586319   24.03130957763359
