32
benzo-e-pyrene.out	Energy:    -768.9134894
C          0.00000        0.72072       -0.86486
C         -0.00000       -0.72072       -0.86486
C          0.00000        1.44047        0.34851
C         -0.00000       -1.44047        0.34851
C          0.00000        0.69974        1.62270
C         -0.00000       -0.69974        1.62270
C          0.00000        1.41363       -2.09293
C         -0.00000       -1.41363       -2.09293
C          0.00000        2.82761        0.29259
C         -0.00000       -2.82761        0.29259
C          0.00000        0.66769       -3.32767
C         -0.00000       -0.66769       -3.32767
C          0.00000        2.80624       -2.10218
C         -0.00000       -2.80624       -2.10218
C          0.00000        1.37265        2.85649
C         -0.00000       -1.37265        2.85649
C          0.00000        3.50331       -0.91761
C         -0.00000       -3.50331       -0.91761
C          0.00000        0.69654        4.04649
C         -0.00000       -0.69654        4.04649
H          0.00000        3.41044        1.19125
H         -0.00000       -3.41044        1.19125
H          0.00000        1.21628       -4.25284
H         -0.00000       -1.21628       -4.25284
H          0.00000        3.32877       -3.04229
H         -0.00000       -3.32877       -3.04229
H          0.00000        2.44343        2.88417
H         -0.00000       -2.44343        2.88417
H          0.00000        4.57857       -0.92321
H         -0.00000       -4.57857       -0.92321
H          0.00000        1.24076        4.97377
H         -0.00000       -1.24076        4.97377
