34
dibenzo-bi-phenazine.out	Energy:    -878.3170931
N          0.00000        0.00000       -1.42111
N          0.00000        0.00000        1.42111
C          0.00000       -1.14320       -0.72711
C          0.00000       -1.14320        0.72711
C          0.00000        1.14320       -0.72711
C          0.00000        1.14320        0.72711
C          0.00000       -3.57624       -0.72667
C          0.00000       -3.57624        0.72667
C          0.00000        3.57624       -0.72667
C          0.00000        3.57624        0.72667
C          0.00000       -2.37502       -1.41097
C          0.00000       -2.37502        1.41097
C          0.00000        2.37502       -1.41097
C          0.00000        2.37502        1.41097
C          0.00000       -4.83684       -1.40655
C          0.00000       -4.83684        1.40655
C          0.00000        4.83684       -1.40655
C          0.00000        4.83684        1.40655
C          0.00000       -6.00573       -0.71461
C          0.00000       -6.00573        0.71461
C          0.00000        6.00573       -0.71461
C          0.00000        6.00573        0.71461
H          0.00000       -2.35257       -2.49255
H          0.00000       -2.35257        2.49255
H          0.00000        2.35257       -2.49255
H          0.00000        2.35257        2.49255
H          0.00000       -4.83672       -2.48875
H          0.00000       -4.83672        2.48875
H          0.00000        4.83672       -2.48875
H          0.00000        4.83672        2.48875
H          0.00000       -6.94976       -1.24250
H          0.00000       -6.94976        1.24250
H          0.00000        6.94976       -1.24250
H          0.00000        6.94976        1.24250
