34
dibenzo-ai-phenazine.out	Energy:    -878.3369925
N          0.89395        0.37471        0.00000
N         -1.28738       -1.41944        0.00000
C          1.08218       -0.92627        0.00000
C          2.43963       -1.46261        0.00000
C         -0.38081        0.83469        0.00000
C         -1.49353       -0.08084        0.00000
C         -0.03993       -1.84716        0.00000
C          2.62402       -2.86483        0.00000
C         -1.92191        2.71133        0.00000
C         -3.03837        1.79282        0.00000
C         -0.62361        2.21088        0.00000
C         -2.79765        0.42275        0.00000
C          0.21414       -3.26283        0.00000
C          1.47650       -3.73897        0.00000
C          3.56080       -0.62240        0.00000
C          3.92930       -3.38154        0.00000
C         -2.19331        4.11279        0.00000
C         -4.36141        2.32936        0.00000
C          4.83678       -1.15252        0.00000
C          5.02311       -2.53856        0.00000
C         -3.47286        4.57922        0.00000
C         -4.57239        3.67475        0.00000
H          0.22582        2.88095        0.00000
H         -3.61794       -0.28265        0.00000
H         -0.64549       -3.91826        0.00000
H          1.65437       -4.80702        0.00000
H          3.40408        0.44607        0.00000
H          4.06901       -4.45496        0.00000
H         -1.35731        4.80016        0.00000
H         -5.19689        1.64141        0.00000
H          5.69418       -0.49324        0.00000
H          6.02342       -2.95002        0.00000
H         -3.66262        5.64407        0.00000
H         -5.58065        4.06631        0.00000
