141
 SCF done       -264.888073768304          0.000230642633
C          24.34550245542039   -3.86365278521626   15.63043054509913
N          23.12824193436731   -3.77372822105291   14.85796324610798
C          22.69112470495632   -2.44138493491916   14.50554490268175
C          22.68126226358949   -4.81856957262045   14.12227119077176
O          21.65423665889285   -4.58678502191855   13.28792340744467
C          21.29274891435429   -5.77480097094313   12.69264639477319
C          22.11789284678061   -6.76736348534695   13.15523594102167
C          23.01811112889370   -6.16755723149038   14.07359724289450
C          24.07385970634119   -6.92908690209899   14.77373449318994
F          25.32047601366511   -6.43794484241167   14.58186413920183
F          23.91777784001641   -6.97451890276342   16.11957979146623
F          24.11759343352065   -8.20463576935545   14.37145382960723
C          20.20979266958972   -5.75586879310341   11.77486395691754
C          19.72437892164026   -6.87008562925034   11.16939391853119
C          18.65164629992205   -6.97403517182051   10.25620776076823
S          18.01325401253788   -8.57314816738360    9.99476353421297
C          17.93769263556913   -6.03723240109355    9.48951810088247
C          18.20175507921689   -4.66016659029140    9.33312108054997
C          17.40715074597374   -3.89047815608198    8.52753287441633
O          17.57577147972882   -2.56308049809395    8.29653547367264
C          18.65453377319549   -1.90835547574722    8.91438968054183
C          16.29272592311315   -4.47313331178393    7.83419915824517
O          15.57635111637683   -3.59710378436526    7.08651072134719
C          14.48066167050029   -4.08521990313149    6.35361922232963
C          16.04442920084415   -5.81480673093122    7.94485617007972
C          16.86506537216878   -6.62042194841939    8.75678429178170
C          16.75995939419290   -8.01416814348669    8.92642817999926
C          15.83289139937083   -8.89325228172482    8.35409594240186
C          15.84902897494719  -10.25009068690406    8.53427911143528
C          14.95066863336766  -11.15461019050158    7.96115873042497
S          13.61862485051567  -10.64713729066501    6.96770579471737
C          14.96966234410452  -12.56151762661733    8.05614012227373
C          15.91349640083344  -13.33061427421930    8.76186183984638
C          15.84885761402126  -14.69817132122499    8.72998583163381
O          16.69343173969866  -15.54281577973244    9.37121310560357
C          17.73026860564722  -14.99108173929035   10.14436212562008
C          14.83732264436345  -15.34589831190624    7.94618212696305
O          14.90657287620218  -16.70030079794692    7.94941049260827
C          13.95663717269964  -17.42349699512931    7.20662991449174
C          13.90736542896131  -14.60514181734477    7.26436955414878
C          13.92659002873016  -13.19803773379522    7.33005963715051
C          13.05609700907876  -12.28159012783383    6.70106805538099
C          11.88576888473926  -12.42891723625824    5.94268266091908
C          11.13085914324925  -13.56537563674332    5.81510796338263
C          10.00489482162610  -13.79460220498057    5.00994517567427
S           9.25225804275281  -15.35790649337890    5.20809779865332
C           9.32452351466451  -13.05363773458138    4.01890289822878
C           9.61641263245672  -11.76404888918336    3.53302792205494
C           8.82993891721399  -11.18837372363481    2.56982229711977
O           9.02096548701001   -9.95413802992209    2.03861973757774
C          10.10823983272119   -9.18847926754703    2.49302330816380
C           7.69920329497859  -11.89332422079622    2.03754534469845
O           6.99283904064958  -11.20973641047088    1.10716954779454
C           5.86642010844343  -11.83075460160513    0.53527006598854
C           7.41841894560639  -13.15992294910077    2.47641797745700
C           8.22257042302717  -13.76081082083932    3.46203146323399
C           8.04944067561554  -15.05392219688248    3.99258268908641
C           7.10591691712142  -16.01747164718787    3.61271874650827
C           6.97938664294469  -17.24324931773099    4.19661274029951
C           6.09839100323497  -18.27709678987809    3.81264577415008
O           6.06421081040151  -19.37680233061876    4.59891486199419
C           5.20113390566654  -20.27725953821150    4.06150998924527
C           4.66305766622353  -19.75429490745527    2.89954719513953
C           5.22455798216957  -18.47849316769356    2.73688307504452
C           4.92637310408522  -17.57496528332186    1.60251700187419
F           6.02011473529612  -17.21675840056799    0.89566098403006
F           4.08392972138563  -18.13158598487139    0.72192976156457
F           4.34941650359810  -16.40881395328214    1.97620723233958
C           4.96698188736267  -21.52177993367134    4.69574829168859
C           5.49350547814124  -21.85511212507856    5.90283689628696
C           5.29327951608288  -23.08305826899227    6.56738824707324
S           4.44694346846591  -24.40340652649414    5.82714575727685
C           5.71881446723294  -23.43250429036264    7.85836406548031
C           6.41724919218967  -22.61988682000177    8.77507345812839
C           6.74307894093115  -23.10813700011707   10.01020731963075
O           7.40164052255661  -22.42582473340543   10.97849491738978
C           7.77785605407753  -21.09578107932854   10.72087921047109
C           6.38152081527115  -24.45309356911223   10.37824629387216
O           6.76619543157982  -24.80697634380955   11.62641694571262
C           6.45718665729749  -26.10124169892201   12.08299363219060
C           5.70473935867668  -25.25279179006937    9.49843312524801
C           5.35547644856528  -24.76003745006318    8.22340713060784
C           4.65707113884947  -25.43080138384911    7.21188074747305
C           4.16734036726722  -26.75944144784891    7.23622676450097
C           3.50559276424659  -27.36291956936138    6.23468511139723
C           3.02938725627284  -28.76538433201580    6.32116418248730
F           3.59071602879820  -29.56058748108332    5.38345712589398
F           3.28155379285841  -29.35145051371467    7.50297509582858
F           1.69725735878920  -28.87206101805545    6.12669397977777
H          24.42146742779301   -2.97308691153065   16.25055345848167
H          25.23496001422579   -3.92665702615186   14.99624723336558
H          24.31569572355986   -4.72831963818631   16.28835376925867
H          22.66948892391684   -1.82789970735101   15.40561519667814
H          21.69005007907673   -2.48559118026851   14.08498615078521
H          23.36329948488804   -1.97749090959459   13.77593571921921
H          22.10586354520609   -7.80228026400763   12.88592308368822
H          19.76363497648859   -4.78728650392190   11.61888878861039
H          20.17003846030242   -7.81751542973135   11.44401315658117
H          19.05589889025275   -4.23231604247893    9.82561983428256
H          19.61514631578049   -2.33403329331835    8.60523347543411
H          18.57585238753226   -1.94532070355685   10.00628945405258
H          18.59704619004832   -0.87238246390419    8.58465760635125
H          13.71916092410868   -4.51963453260533    7.00979707696762
H          14.79135886379073   -4.83175942182880    5.61511320746930
H          14.06324764195004   -3.22138793261623    5.83914560958258
H          15.22993305724335   -6.27440778386070    7.41070578266987
H          15.06619311388051   -8.46456149045170    7.72294227546161
H          16.62663127181011  -10.66757220761785    9.15981392701558
H          16.68551536281905  -12.82635564289286    9.31804251445075
H          18.26819640178706  -15.84006113280041   10.56250370418160
H          17.33921590035240  -14.37249560627218   10.95889403897564
H          18.41460381208747  -14.39436110045644    9.53228719190897
H          14.02131254492789  -17.19548571128644    6.13758443218148
H          12.93766099631054  -17.22902339644513    7.55768960298674
H          14.19811084069141  -18.47300925740145    7.36559701057353
H          13.18055931078246  -15.09658777255455    6.64419314185392
H          11.55154222754559  -11.51968365573046    5.46612778544474
H          11.39460353342497  -14.41273269221558    6.43079791387334
H          10.46979649375793  -11.23490099529694    3.91446846998237
H          10.02983114442607   -8.97290954017057    3.56411015071867
H          10.06310556466854   -8.25521730644663    1.93424935216520
H          11.06348318364910   -9.68492664823441    2.29156290487392
H           5.11295255195109  -12.07102607980902    1.29220699791831
H           6.14111809676314  -12.74242501855873   -0.00454830196804
H           5.45612365458618  -11.10581839669907   -0.16544625983865
H           6.58213778577526  -13.70972284810150    2.07980641666247
H           6.45820196321480  -15.73853933471384    2.79873406230609
H           7.60569246344760  -17.48445646189674    5.04554851219482
H           3.95542698567944  -20.22703477358963    2.25012494020178
H           4.32142487341788  -22.21000733746113    4.17034068926351
H           6.11106766386133  -21.12610163647118    6.40808073244547
H           6.68053379717306  -21.61614376636372    8.48759364303111
H           8.27094383697555  -20.74925401897207   11.62739689626130
H           6.90671165254316  -20.46421644959053   10.51779574059479
H           8.47688267374668  -21.03109262294716    9.88055183744647
H           6.92842504385981  -26.86944281308517   11.46150497416132
H           5.37580394791722  -26.26955348237546   12.11124848953604
H           6.85764851245625  -26.15910662536181   13.09353693627609
H           5.42682631793560  -26.25829383719716    9.76550694188359
H           4.35638557699292  -27.31605769553707    8.14443578114786
H           3.28256637222179  -26.87170346627592    5.30116380643801
