156
 SCF done       -276.587470444113          0.000585420799
C           0.83888560773779    0.80262101076080    2.89094139706698
O           0.15884002139073   -0.03976165851641    1.97811576079157
N           0.47968957112523   -1.39355003494744    2.12104253908371
C          -0.04880000333938   -2.06598422749116    3.22006322508445
C          -1.22002403624416   -1.78661375648987    3.84672104969138
H          -1.91244414799046   -1.00183793717425    3.62168080368923
S          -1.55446766575966   -2.90208328829813    5.12281301723720
C          -0.08501481452053   -3.75520494803806    4.80999152751529
C           0.61259863497367   -3.20928032612977    3.78241855971283
N           1.86169809377005   -3.63372665865682    3.32363664450466
C           2.37492532077638   -2.90835424823438    2.24594178336909
C           1.73587345928236   -1.82039802293120    1.70890238877246
C           2.53718991284229   -1.28076721569340    0.62506697489560
C           3.67942799338288   -2.11282581094365    0.55609523015048
C           4.71273195167330   -1.94936946043857   -0.35793296504268
C           4.57312426813737   -0.86887980519192   -1.26216638218364
C           3.46457479035766   -0.06084679926013   -1.20477712114960
C           2.42781428609047   -0.24445352872209   -0.26751341278407
C           5.76906857921420   -2.88728960404720   -0.26880377250992
C           5.72900236745804   -3.87513085067683    0.68307759271770
C           4.66836001879432   -4.02123937699855    1.59986247726822
C           3.62277067244531   -3.13337704973513    1.53726014217138
N           2.14428734354425   -4.98946418431005    3.42924241825818
C           1.90286773869006   -5.83318302044206    2.34284062712110
C           1.15018097996344   -5.55184579650432    1.24946750370194
H           0.61153647576323   -4.65556778719494    1.01887242528607
S           1.11315794963710   -6.87889965667374    0.14253902714758
C           2.12390347991158   -7.82472474328025    1.17216939558109
C           2.46058202198289   -7.15339995616703    2.30093413091484
N           3.22930329800315   -7.64028021451962    3.36959935019824
C           3.66823871666019   -6.67030170989871    4.27416614643921
C           3.13901256037143   -5.40165375121329    4.29964217993179
C           3.80209441602758   -4.61605167467742    5.32312121705102
C           4.77957336821229   -5.47806085318931    5.87616039609231
C           5.67633985204323   -5.11085193402245    6.87179773821636
C           5.54575051235179   -3.79071764854736    7.36655830775656
C           4.58961203430006   -2.95378338320793    6.84763020530055
C           3.70900984498308   -3.33833866653512    5.81675100642000
C           6.62575144378234   -6.09196366406058    7.24564033571222
C           6.63909391736097   -7.30675543802508    6.60737092470295
C           5.71962686762256   -7.65692570405970    5.59787351589511
C           4.75202293159400   -6.74649406304375    5.24135885178522
C           3.29306633106318   -8.98084917667371    3.62949579380171
N           3.37732826787138   -9.44831682638923    4.94166119704628
H           3.42568728528150   -8.88354099670828    5.77232410589669
C           3.38143039177816  -10.80145740700480    4.80964441366182
N           3.44764269548289  -11.98262169848838    5.46615280373534
H           3.51851657529304  -12.15606378359976    6.45427054377870
C           3.37657695963496  -12.95160563568449    4.46224877998066
N           3.28185790841663  -12.42942143140240    3.25331077898353
C           3.28625135057060  -11.08979048511858    3.44609306372324
N           3.23584090387952   -9.92919607583710    2.72835823271518
C           3.41290195011382  -14.34390638319749    4.76864415642253
C           3.32602657848503  -15.25808407381320    3.78370884245416
N           3.34576080030306  -16.62650306685863    3.90448840502299
C           2.78943892424967  -17.31257795034342    4.98429152774829
C           2.06629135340051  -16.79293102404822    6.01400369526051
H           1.76432845541021  -15.77997398414539    6.17414179784800
S           1.50895949464251  -18.00148356087867    7.11485391364681
C           2.23616436228961  -19.24536409535614    6.16464768311602
C           2.86767908852886  -18.74471905804770    5.07383187937567
N           3.50400189760700  -19.50308557939598    4.09207779127794
C           3.92136381210312  -18.78830647137084    2.97251865857098
C           3.87906155429181  -17.41877415786028    2.88941721548926
C           4.52171083361200  -17.00866579651790    1.63970357417732
C           4.89106983709135  -18.21990767608073    0.99921445405235
C           5.53998620238854  -18.31083445142716   -0.22741508859557
C           5.83681316746182  -17.08345148146487   -0.86415148863533
C           5.50493819572830  -15.90389694946381   -0.24891772218013
C           4.85857308727547  -15.83686716622999    1.00314399073787
C           5.84208278778242  -19.61739754506642   -0.67947790594830
C           5.51406574035072  -20.70692484499797    0.08894528307398
C           4.87112883312998  -20.59508403429572    1.33607323245676
C           4.54999803624527  -19.34029779980215    1.79356506632973
N           3.06805814274742  -20.81263015883698    3.89983519618968
C           1.71727451171710  -21.02069563833440    3.60191042674584
C           0.91698093403225  -20.18522185686283    2.89243732233200
H           1.16712555765011  -19.24043698912349    2.45408882358089
S          -0.67965528360393  -20.81606975482200    2.70866300793642
C          -0.26246941762780  -22.23038589687546    3.60740844437381
C           1.02960718656487  -22.20695397141414    4.01999459628797
N           1.65972892948350  -23.17206777437477    4.81401358185529
C           3.01836445139225  -22.95295069546399    5.05127155858275
C           3.66961916480933  -21.81696280376751    4.65175641656502
C           5.05872553589170  -21.88856588541285    5.06691697138262
C           5.18301016043541  -23.13113605100273    5.73355105573769
C           6.36227443783536  -23.60940103537816    6.29037369239302
C           7.49409346153112  -22.76994957845260    6.15215130112475
C           7.38394329749296  -21.56756443999069    5.49845279406332
C           6.17444383990122  -21.09940320569465    4.94561253334297
C           6.27889819552453  -24.87517658842222    6.91876816793805
C           5.08205990720745  -25.54655217354157    6.95423895657376
C           3.89832767092022  -25.04265411095444    6.37799786680586
C           3.94621175362013  -23.82207435823397    5.75187657219406
N           1.21609546958056  -24.47486622011584    4.73165333145438
C           1.65145552003023  -25.32944339005503    3.72799469923895
C           2.50972632792390  -25.03742478002946    2.71790742148386
H           2.99482406435912  -24.10757790894024    2.50368385493883
S           2.80021114260637  -26.40640236920381    1.70113425653965
C           1.74247219751052  -27.38432026337469    2.65232844601695
C           1.20675063074578  -26.69099272323420    3.68732296487758
N           0.30893103915043  -27.18422062048351    4.64564802181329
C          -0.13478798313495  -26.26979124136687    5.61604854309222
C           0.31060341132205  -24.97457311581256    5.64536784233282
C          -0.32263091341317  -24.27512357659618    6.75065441075326
C          -1.16131664514417  -25.23669577682739    7.36235983147493
C          -1.96487379642468  -24.98799027109478    8.46850082667750
C          -1.90900481081225  -23.67305489351540    8.98750719124287
C          -1.09787959525650  -22.73300456243770    8.40011797468200
C          -0.29307860679153  -23.00807809979202    7.27714837154498
C          -2.73729796040814  -26.08211371990982    8.92947456802335
C          -2.66252624806032  -27.29365727860814    8.28835283731927
C          -1.84063358681843  -27.52466018418054    7.16598816634187
C          -1.07854246566562  -26.48414414828588    6.69395618467848
C          -0.09388925293697  -28.43578963004030    4.61340169867529
N          -0.43563971790457  -29.53244320110119    4.57692079070471
H           0.49306439373631    1.80800055005705    2.66397621474849
H           1.92343421686440    0.74284183850151    2.75122128267015
H           0.58610285005395    0.55022777917493    3.92606973692721
H           0.17809527525946   -4.60454823383571    5.40622242036388
H           5.34262443381450   -0.68664055808337   -1.99827643042882
H           3.37351144624064    0.75655570076293   -1.90595493120277
H           1.57510728867423    0.41771179714338   -0.26847021511709
H           6.60283399220562   -2.82167241512539   -0.95251292846313
H           6.54249558421443   -4.58427609055021    0.74005273784099
H           4.71207295663705   -4.82268449861282    2.32209047749163
H           2.40031340239773   -8.82514978363690    0.91268161044397
H           6.20804512079006   -3.44593195684614    8.14714050803810
H           4.50642289940895   -1.94814748810049    7.23454889200525
H           2.98919152337389   -2.62836837072048    5.43969864150911
H           7.34864983957041   -5.87199831524683    8.01728299374291
H           7.38667535668164   -8.03746443063318    6.88210091954125
H           5.80994203542150   -8.62075723392514    5.11803240553619
H           3.54995009965127  -14.61411441463941    5.80428711078652
H           3.24319553654752  -14.88828184019261    2.77475282214100
H           2.15127827115345  -20.26746979951655    6.47266350320449
H           6.33370376794072  -17.08249703170325   -1.82326364932289
H           5.74797488185307  -14.96963502364998   -0.73411928010100
H           4.66831195385475  -14.85892617075285    1.41685754139232
H           6.33941755853070  -19.75008368987968   -1.62918937724411
H           5.75957928460764  -21.69697176823216   -0.26819910827151
H           4.65358929769191  -21.48613987003084    1.90519692952821
H          -1.00160580537651  -22.98418623746978    3.78734241873916
H           8.44359131236278  -23.08287871582866    6.56147162868103
H           8.25969646955541  -20.94228040241047    5.39839749322320
H           6.15079802424126  -20.14537899519894    4.44076241064904
H           7.15985801819349  -25.30799980462691    7.36970375835819
H           5.03402559619860  -26.50985746642212    7.44166509739189
H           2.99109351231829  -25.62438467216124    6.44975800016915
H           1.57690590420134  -28.41042595318390    2.39368959067420
H          -2.50922359084480  -23.41245063125936    9.84702078156949
H          -1.06938533374272  -21.73288579489483    8.80820004111221
H           0.31834050409610  -22.22375163034144    6.85818604783601
H          -3.38435568219424  -25.95635708449282    9.78510480447733
H          -3.25917970329861  -28.11779035409021    8.65190397722681
H          -1.82720744809839  -28.50061188177354    6.70493976208168
