57
	Energy:       0.0000000
  C       -9.08138        0.11553       -0.06665
  C       -8.59210       -1.18001       -0.01603
  C       -7.14943       -1.22645        0.01838
  C       -6.55178        0.05538       -0.01059
  C       -5.17376        0.43570       -0.00525
  C       -4.64200        1.74384       -0.00047
  C       -3.20900        1.79374        0.00199
  C       -2.60114        0.51304       -0.00295
  S       -3.86102       -0.71583       -0.01375
  S       -7.81906        1.27268       -0.07189
  C       -1.23050        0.14260       -0.00233
  C       -0.69739       -1.16874       -0.01068
  C        0.73406       -1.21899       -0.00947
  C        1.34353        0.06145        0.00055
  C        2.71471        0.42956        0.00409
  C        3.25088        1.73855        0.01598
  C        4.68424        1.78313        0.01924
  C        5.28602        0.50486        0.00664
  C        6.66195        0.12278       -0.00315
  C        7.19545       -1.18342       -0.00273
  C        8.63421       -1.22081       -0.01588
  C        9.20635        0.03763       -0.02721
  S        7.99582        1.25921       -0.02300
  S        4.03099       -0.72464       -0.00375
  S        0.08700        1.29510        0.00861
  C       -6.59446       -2.53524        0.08646
  N       -7.34447       -3.61617        0.10592
  C       -8.70308       -3.43651        0.05766
  N       -9.36575       -2.30848        0.00220
  N       -5.40584        2.86581        0.00188
  C       -2.65422        3.10124        0.00771
  N       -3.40330        4.18734        0.00986
  C       -4.75388        4.00758        0.00674
  C        1.28690       -2.52734       -0.01847
  N       -1.46289       -2.28652       -0.01957
  N        0.53526       -3.61210       -0.02694
  C       -0.81359       -3.43199       -0.02699
  N        2.49040        2.85984        0.02508
  C        5.24099        3.09139        0.04101
  N        4.49434        4.17733        0.05047
  C        3.14320        4.00260        0.03930
  C        9.21926       -2.52239       -0.01568
  N        6.45081       -2.32014        0.00847
  N        8.48697       -3.61020       -0.00466
  C        7.12441       -3.44836        0.00683
  H      -10.11896        0.41782       -0.09613
  H       10.25266        0.31079       -0.03792
  H       -5.52032       -2.70003        0.13034
  H       -9.28817       -4.35385        0.07136
  H       -1.57982        3.26580        0.01042
  H       -5.34941        4.91759        0.00827
  H        2.36089       -2.69445       -0.01882
  H       -1.41162       -4.34007       -0.03390
  H        6.31583        3.25489        0.05330
  H        2.54954        4.91338        0.04548
  H       10.30242       -2.64546       -0.02495
  H        6.54784       -4.36982        0.01566
