42
TetramerDFTdata/TetramerOutputs/50-63_ABAB.log	Energy: -3169183.5651316
C         -7.39138        0.83274        0.69676
S         -5.89616        1.72918        0.70040
C         -7.17136       -0.47241        0.39803
C         -7.98139       -1.72434        0.22723
O         -9.18317       -1.86669        0.34970
C         -6.96749       -2.76704       -0.13906
C         -5.72688       -2.22596       -0.18331
C         -5.79964       -0.79478        0.15023
C         -4.94864        0.28418        0.26235
C         -3.51472        0.35149        0.10482
S         -2.56205       -1.10964        0.25447
C         -2.68899        1.43039       -0.16801
S         -3.09614        3.12160       -0.44874
C         -1.44910        3.69390       -0.74902
S         -1.08323        5.25283       -1.09061
S         -0.21957        2.41634       -0.64579
C         -1.31017        1.08555       -0.26994
C         -1.04892       -0.26804       -0.07744
C          0.20416       -0.97660       -0.10981
S          1.72846       -0.08854       -0.32896
C          0.48957       -2.32209        0.00917
C         -0.25375       -3.60116        0.21247
O         -1.45886       -3.77456        0.32516
C          0.80655       -4.65599        0.26440
C          2.02864       -4.09610        0.11798
C          1.87980       -2.64544       -0.05630
C          2.70815       -1.56459       -0.23122
C          4.14615       -1.50142       -0.37023
S          5.02663       -2.82732       -1.12306
C          5.03700       -0.50899       -0.00586
S          4.77206        1.03489        0.79879
C          6.47535        1.54236        0.86512
S          6.95092        2.96293        1.52524
S          7.60415        0.37456        0.15196
C          6.40159       -0.82630       -0.30793
C          6.55703       -2.04704       -0.90313
H         -8.32463        1.33475        0.91731
H         -7.23628       -3.79716       -0.33731
H         -4.81452       -2.75856       -0.42609
H          0.57475       -5.70265        0.41655
H          2.97789       -4.61865        0.13337
H          7.46849       -2.53081       -1.22576
